BEGIN Configuration File: /home/s65oh/booksim2/runfiles/mesh_k6_inj0.05_pkt4.cfg
topology = mesh;
k = 6;
n = 2;
routing_function = dor;
traffic = uniform;
packet_size = 4;
injection_rate = 0.05;
sim_count = 100000;
warmup_periods = 1000;

END Configuration File: /home/s65oh/booksim2/runfiles/mesh_k6_inj0.05_pkt4.cfg
Class 0:
Packet latency average = 31.6535
	minimum = 10
	maximum = 73
Network latency average = 31.2894
	minimum = 10
	maximum = 73
Slowest packet = 312
Flit latency average = 27.5043
	minimum = 7
	maximum = 70
Slowest flit = 1251
Fragmentation average = 1.47118
	minimum = 0
	maximum = 16
Injected packet rate average = 0.0489722
	minimum = 0.027 (at node 24)
	maximum = 0.077 (at node 33)
Accepted packet rate average = 0.0472222
	minimum = 0.036 (at node 19)
	maximum = 0.061 (at node 25)
Injected flit rate average = 0.195333
	minimum = 0.108 (at node 24)
	maximum = 0.307 (at node 33)
Accepted flit rate average= 0.189417
	minimum = 0.144 (at node 19)
	maximum = 0.244 (at node 25)
Injected packet length average = 3.98866
Accepted packet length average = 4.01118
Total in-flight flits = 233 (0 measured)
latency change    = 1
throughput change = 1
Class 0:
Packet latency average = 31.8792
	minimum = 10
	maximum = 75
Network latency average = 31.5322
	minimum = 10
	maximum = 75
Slowest packet = 3208
Flit latency average = 27.7431
	minimum = 7
	maximum = 72
Slowest flit = 12835
Fragmentation average = 1.50472
	minimum = 0
	maximum = 24
Injected packet rate average = 0.04925
	minimum = 0.035 (at node 24)
	maximum = 0.0605 (at node 33)
Accepted packet rate average = 0.0485139
	minimum = 0.039 (at node 13)
	maximum = 0.061 (at node 25)
Injected flit rate average = 0.196847
	minimum = 0.14 (at node 24)
	maximum = 0.242 (at node 33)
Accepted flit rate average= 0.194194
	minimum = 0.156 (at node 13)
	maximum = 0.2445 (at node 25)
Injected packet length average = 3.9969
Accepted packet length average = 4.00286
Total in-flight flits = 202 (0 measured)
latency change    = 0.00707852
throughput change = 0.0246031
Class 0:
Packet latency average = 31.9198
	minimum = 10
	maximum = 74
Network latency average = 31.5376
	minimum = 10
	maximum = 74
Slowest packet = 4820
Flit latency average = 27.6714
	minimum = 7
	maximum = 71
Slowest flit = 19280
Fragmentation average = 1.64791
	minimum = 0
	maximum = 28
Injected packet rate average = 0.0500556
	minimum = 0.04 (at node 16)
	maximum = 0.063 (at node 24)
Accepted packet rate average = 0.0498611
	minimum = 0.032 (at node 2)
	maximum = 0.073 (at node 7)
Injected flit rate average = 0.200278
	minimum = 0.162 (at node 16)
	maximum = 0.252 (at node 24)
Accepted flit rate average= 0.19975
	minimum = 0.128 (at node 2)
	maximum = 0.292 (at node 7)
Injected packet length average = 4.00111
Accepted packet length average = 4.00613
Total in-flight flits = 219 (0 measured)
latency change    = 0.00127163
throughput change = 0.0278125
Class 0:
Packet latency average = 31.9499
	minimum = 10
	maximum = 74
Network latency average = 31.5603
	minimum = 10
	maximum = 74
Slowest packet = 4820
Flit latency average = 27.7282
	minimum = 7
	maximum = 71
Slowest flit = 19280
Fragmentation average = 1.62058
	minimum = 0
	maximum = 28
Injected packet rate average = 0.0502917
	minimum = 0.042 (at node 29)
	maximum = 0.064 (at node 17)
Accepted packet rate average = 0.0502222
	minimum = 0.0415 (at node 33)
	maximum = 0.0625 (at node 15)
Injected flit rate average = 0.201194
	minimum = 0.168 (at node 29)
	maximum = 0.256 (at node 17)
Accepted flit rate average= 0.200958
	minimum = 0.166 (at node 33)
	maximum = 0.25 (at node 15)
Injected packet length average = 4.00055
Accepted packet length average = 4.00138
Total in-flight flits = 217 (0 measured)
latency change    = 0.000944212
throughput change = 0.00601286
Class 0:
Packet latency average = 32.1188
	minimum = 10
	maximum = 67
Network latency average = 31.8061
	minimum = 10
	maximum = 67
Slowest packet = 7718
Flit latency average = 28.0093
	minimum = 7
	maximum = 64
Slowest flit = 30873
Fragmentation average = 1.45726
	minimum = 0
	maximum = 21
Injected packet rate average = 0.0486389
	minimum = 0.038 (at node 19)
	maximum = 0.058 (at node 1)
Accepted packet rate average = 0.0484167
	minimum = 0.038 (at node 9)
	maximum = 0.069 (at node 3)
Injected flit rate average = 0.194639
	minimum = 0.152 (at node 19)
	maximum = 0.232 (at node 1)
Accepted flit rate average= 0.194083
	minimum = 0.152 (at node 26)
	maximum = 0.274 (at node 3)
Injected packet length average = 4.00171
Accepted packet length average = 4.00861
Total in-flight flits = 234 (0 measured)
latency change    = 0.005256
throughput change = 0.0354229
Class 0:
Packet latency average = 32.0585
	minimum = 10
	maximum = 69
Network latency average = 31.6972
	minimum = 10
	maximum = 69
Slowest packet = 9792
Flit latency average = 27.8455
	minimum = 7
	maximum = 66
Slowest flit = 39171
Fragmentation average = 1.59522
	minimum = 0
	maximum = 21
Injected packet rate average = 0.0507222
	minimum = 0.0425 (at node 19)
	maximum = 0.063 (at node 9)
Accepted packet rate average = 0.0505417
	minimum = 0.04 (at node 26)
	maximum = 0.062 (at node 3)
Injected flit rate average = 0.202847
	minimum = 0.1685 (at node 31)
	maximum = 0.251 (at node 9)
Accepted flit rate average= 0.202361
	minimum = 0.16 (at node 26)
	maximum = 0.247 (at node 3)
Injected packet length average = 3.99918
Accepted packet length average = 4.00385
Total in-flight flits = 255 (0 measured)
latency change    = 0.00187869
throughput change = 0.040906
Class 0:
Packet latency average = 32.4202
	minimum = 10
	maximum = 69
Network latency average = 32.0616
	minimum = 10
	maximum = 69
Slowest packet = 12221
Flit latency average = 28.1961
	minimum = 7
	maximum = 66
Slowest flit = 48886
Fragmentation average = 1.65732
	minimum = 0
	maximum = 22
Injected packet rate average = 0.0500833
	minimum = 0.038 (at node 20)
	maximum = 0.067 (at node 2)
Accepted packet rate average = 0.0505
	minimum = 0.034 (at node 31)
	maximum = 0.06 (at node 34)
Injected flit rate average = 0.200472
	minimum = 0.153 (at node 20)
	maximum = 0.268 (at node 2)
Accepted flit rate average= 0.201556
	minimum = 0.136 (at node 31)
	maximum = 0.24 (at node 34)
Injected packet length average = 4.00277
Accepted packet length average = 3.9912
Total in-flight flits = 211 (0 measured)
latency change    = 0.0111569
throughput change = 0.00399669
Class 0:
Packet latency average = 31.9724
	minimum = 10
	maximum = 69
Network latency average = 31.5837
	minimum = 10
	maximum = 69
Slowest packet = 12221
Flit latency average = 27.7742
	minimum = 7
	maximum = 66
Slowest flit = 48886
Fragmentation average = 1.56254
	minimum = 0
	maximum = 22
Injected packet rate average = 0.0492083
	minimum = 0.041 (at node 29)
	maximum = 0.063 (at node 3)
Accepted packet rate average = 0.0493056
	minimum = 0.0405 (at node 28)
	maximum = 0.06 (at node 30)
Injected flit rate average = 0.196958
	minimum = 0.164 (at node 29)
	maximum = 0.252 (at node 3)
Accepted flit rate average= 0.197181
	minimum = 0.1635 (at node 28)
	maximum = 0.2385 (at node 30)
Injected packet length average = 4.00254
Accepted packet length average = 3.99915
Total in-flight flits = 230 (0 measured)
latency change    = 0.0140073
throughput change = 0.0221878
Class 0:
Packet latency average = 32.0661
	minimum = 10
	maximum = 67
Network latency average = 31.6513
	minimum = 10
	maximum = 67
Slowest packet = 15149
Flit latency average = 27.7725
	minimum = 7
	maximum = 64
Slowest flit = 60596
Fragmentation average = 1.70005
	minimum = 0
	maximum = 18
Injected packet rate average = 0.05125
	minimum = 0.038 (at node 7)
	maximum = 0.063 (at node 18)
Accepted packet rate average = 0.0513056
	minimum = 0.034 (at node 14)
	maximum = 0.069 (at node 33)
Injected flit rate average = 0.204944
	minimum = 0.152 (at node 7)
	maximum = 0.253 (at node 34)
Accepted flit rate average= 0.204861
	minimum = 0.136 (at node 14)
	maximum = 0.274 (at node 33)
Injected packet length average = 3.99892
Accepted packet length average = 3.99296
Total in-flight flits = 235 (0 measured)
latency change    = 0.00292081
throughput change = 0.0374915
Class 0:
Packet latency average = 32.1033
	minimum = 10
	maximum = 74
Network latency average = 31.6927
	minimum = 10
	maximum = 74
Slowest packet = 17146
Flit latency average = 27.8327
	minimum = 7
	maximum = 71
Slowest flit = 68587
Fragmentation average = 1.64883
	minimum = 0
	maximum = 24
Injected packet rate average = 0.0516806
	minimum = 0.0395 (at node 7)
	maximum = 0.0625 (at node 28)
Accepted packet rate average = 0.0516528
	minimum = 0.0415 (at node 18)
	maximum = 0.0605 (at node 33)
Injected flit rate average = 0.206736
	minimum = 0.158 (at node 7)
	maximum = 0.25 (at node 28)
Accepted flit rate average= 0.206597
	minimum = 0.166 (at node 18)
	maximum = 0.241 (at node 33)
Injected packet length average = 4.00027
Accepted packet length average = 3.99973
Total in-flight flits = 239 (0 measured)
latency change    = 0.00115878
throughput change = 0.00840336
Too many sample periods needed to converge
Simulation unstable, ending ...
Total run time 0.594346
