BEGIN Configuration File: /home/s65oh/booksim2/runfiles/mesh_k6_inj0.1_pkt8.cfg
topology = mesh;
k = 6;
n = 2;
routing_function = dor;
traffic = uniform;
packet_size = 8;
injection_rate = 0.1;
sim_count = 100000;
warmup_periods = 1000;

END Configuration File: /home/s65oh/booksim2/runfiles/mesh_k6_inj0.1_pkt8.cfg
Class 0:
Packet latency average = 180.313
	minimum = 14
	maximum = 798
Network latency average = 157.931
	minimum = 14
	maximum = 791
Slowest packet = 271
Flit latency average = 124.583
	minimum = 7
	maximum = 784
Slowest flit = 2175
Fragmentation average = 64.1202
	minimum = 0
	maximum = 514
Injected packet rate average = 0.0823333
	minimum = 0.065 (at node 25)
	maximum = 0.105 (at node 14)
Accepted packet rate average = 0.0628611
	minimum = 0.051 (at node 17)
	maximum = 0.083 (at node 25)
Injected flit rate average = 0.655944
	minimum = 0.518 (at node 28)
	maximum = 0.838 (at node 14)
Accepted flit rate average= 0.529528
	minimum = 0.436 (at node 17)
	maximum = 0.69 (at node 25)
Injected packet length average = 7.96694
Accepted packet length average = 8.42377
Total in-flight flits = 4649 (0 measured)
latency change    = 1
throughput change = 1
Class 0:
Packet latency average = 321.802
	minimum = 14
	maximum = 1354
Network latency average = 216.489
	minimum = 14
	maximum = 1255
Slowest packet = 2135
Flit latency average = 174.544
	minimum = 7
	maximum = 1248
Slowest flit = 16207
Fragmentation average = 73.5702
	minimum = 0
	maximum = 600
Injected packet rate average = 0.0761944
	minimum = 0.055 (at node 7)
	maximum = 0.1025 (at node 14)
Accepted packet rate average = 0.0664028
	minimum = 0.056 (at node 13)
	maximum = 0.0805 (at node 7)
Injected flit rate average = 0.608222
	minimum = 0.4385 (at node 7)
	maximum = 0.819 (at node 14)
Accepted flit rate average= 0.543014
	minimum = 0.4715 (at node 2)
	maximum = 0.6635 (at node 7)
Injected packet length average = 7.9825
Accepted packet length average = 8.17758
Total in-flight flits = 4791 (0 measured)
latency change    = 0.439676
throughput change = 0.0248357
Class 0:
Packet latency average = 766.236
	minimum = 43
	maximum = 1592
Network latency average = 301.735
	minimum = 18
	maximum = 1374
Slowest packet = 5402
Flit latency average = 253.05
	minimum = 7
	maximum = 1367
Slowest flit = 23903
Fragmentation average = 81.7621
	minimum = 0
	maximum = 741
Injected packet rate average = 0.0679722
	minimum = 0.043 (at node 22)
	maximum = 0.101 (at node 21)
Accepted packet rate average = 0.0679444
	minimum = 0.056 (at node 27)
	maximum = 0.097 (at node 15)
Injected flit rate average = 0.543639
	minimum = 0.34 (at node 22)
	maximum = 0.806 (at node 21)
Accepted flit rate average= 0.542583
	minimum = 0.465 (at node 27)
	maximum = 0.748 (at node 15)
Injected packet length average = 7.99796
Accepted packet length average = 7.98569
Total in-flight flits = 4834 (0 measured)
latency change    = 0.580022
throughput change = 0.000793529
Average latency for class 0 exceeded 500 cycles. Aborting simulation.
Too many sample periods needed to converge
Simulation unstable, ending ...
Total run time 0.479018
