BEGIN Configuration File: /home/s65oh/booksim2/runfiles/mesh_k3_inj0.05_pkt4.cfg
topology = mesh;
k = 3;
n = 2;
routing_function = dor;
traffic = uniform;
packet_size = 4;
injection_rate = 0.05;
sim_count = 100000;
warmup_periods = 1000;

END Configuration File: /home/s65oh/booksim2/runfiles/mesh_k3_inj0.05_pkt4.cfg
Class 0:
Packet latency average = 20.8451
	minimum = 10
	maximum = 38
Network latency average = 20.4852
	minimum = 10
	maximum = 37
Slowest packet = 164
Flit latency average = 16.9562
	minimum = 7
	maximum = 34
Slowest flit = 1347
Fragmentation average = 1.06834
	minimum = 0
	maximum = 12
Injected packet rate average = 0.0488889
	minimum = 0.033 (at node 4)
	maximum = 0.062 (at node 1)
Accepted packet rate average = 0.0487778
	minimum = 0.039 (at node 1)
	maximum = 0.063 (at node 2)
Injected flit rate average = 0.195556
	minimum = 0.132 (at node 4)
	maximum = 0.248 (at node 1)
Accepted flit rate average= 0.195111
	minimum = 0.156 (at node 1)
	maximum = 0.252 (at node 2)
Injected packet length average = 4
Accepted packet length average = 4
Total in-flight flits = 4 (0 measured)
latency change    = 1
throughput change = 1
Class 0:
Packet latency average = 20.3394
	minimum = 10
	maximum = 38
Network latency average = 20.024
	minimum = 10
	maximum = 37
Slowest packet = 164
Flit latency average = 16.5401
	minimum = 7
	maximum = 34
Slowest flit = 1347
Fragmentation average = 0.964571
	minimum = 0
	maximum = 12
Injected packet rate average = 0.049
	minimum = 0.043 (at node 4)
	maximum = 0.0585 (at node 1)
Accepted packet rate average = 0.0486111
	minimum = 0.046 (at node 8)
	maximum = 0.0535 (at node 2)
Injected flit rate average = 0.196
	minimum = 0.172 (at node 4)
	maximum = 0.234 (at node 1)
Accepted flit rate average= 0.194722
	minimum = 0.184 (at node 8)
	maximum = 0.214 (at node 2)
Injected packet length average = 4
Accepted packet length average = 4.00571
Total in-flight flits = 23 (0 measured)
latency change    = 0.0248618
throughput change = 0.00199715
Class 0:
Packet latency average = 20.3822
	minimum = 10
	maximum = 37
Network latency average = 20.0378
	minimum = 10
	maximum = 37
Slowest packet = 1006
Flit latency average = 16.6034
	minimum = 7
	maximum = 34
Slowest flit = 4027
Fragmentation average = 0.877778
	minimum = 0
	maximum = 11
Injected packet rate average = 0.0502222
	minimum = 0.034 (at node 7)
	maximum = 0.058 (at node 0)
Accepted packet rate average = 0.05
	minimum = 0.043 (at node 1)
	maximum = 0.063 (at node 7)
Injected flit rate average = 0.200444
	minimum = 0.136 (at node 7)
	maximum = 0.232 (at node 0)
Accepted flit rate average= 0.199778
	minimum = 0.172 (at node 1)
	maximum = 0.249 (at node 7)
Injected packet length average = 3.99115
Accepted packet length average = 3.99556
Total in-flight flits = 33 (0 measured)
latency change    = 0.00209956
throughput change = 0.0253059
Class 0:
Packet latency average = 20.3189
	minimum = 10
	maximum = 40
Network latency average = 19.9737
	minimum = 10
	maximum = 38
Slowest packet = 1396
Flit latency average = 16.5223
	minimum = 7
	maximum = 35
Slowest flit = 5587
Fragmentation average = 0.922286
	minimum = 0
	maximum = 11
Injected packet rate average = 0.0489444
	minimum = 0.038 (at node 7)
	maximum = 0.055 (at node 8)
Accepted packet rate average = 0.0486111
	minimum = 0.0435 (at node 3)
	maximum = 0.0535 (at node 4)
Injected flit rate average = 0.195611
	minimum = 0.1515 (at node 7)
	maximum = 0.22 (at node 8)
Accepted flit rate average= 0.194333
	minimum = 0.174 (at node 3)
	maximum = 0.214 (at node 4)
Injected packet length average = 3.99659
Accepted packet length average = 3.99771
Total in-flight flits = 49 (0 measured)
latency change    = 0.00311854
throughput change = 0.028016
Class 0:
Packet latency average = 20.7042
	minimum = 10
	maximum = 41
Network latency average = 20.3292
	minimum = 10
	maximum = 41
Slowest packet = 2025
Flit latency average = 16.8464
	minimum = 7
	maximum = 38
Slowest flit = 8103
Fragmentation average = 0.997917
	minimum = 0
	maximum = 9
Injected packet rate average = 0.0533333
	minimum = 0.043 (at node 1)
	maximum = 0.066 (at node 4)
Accepted packet rate average = 0.0533333
	minimum = 0.045 (at node 3)
	maximum = 0.062 (at node 5)
Injected flit rate average = 0.213
	minimum = 0.174 (at node 1)
	maximum = 0.264 (at node 4)
Accepted flit rate average= 0.214111
	minimum = 0.18 (at node 3)
	maximum = 0.249 (at node 5)
Injected packet length average = 3.99375
Accepted packet length average = 4.01458
Total in-flight flits = 42 (0 measured)
latency change    = 0.0186102
throughput change = 0.0923716
Class 0:
Packet latency average = 20.6818
	minimum = 10
	maximum = 41
Network latency average = 20.2761
	minimum = 10
	maximum = 41
Slowest packet = 2025
Flit latency average = 16.7436
	minimum = 7
	maximum = 38
Slowest flit = 8103
Fragmentation average = 1.07376
	minimum = 0
	maximum = 9
Injected packet rate average = 0.0524444
	minimum = 0.043 (at node 3)
	maximum = 0.063 (at node 8)
Accepted packet rate average = 0.0527222
	minimum = 0.0465 (at node 0)
	maximum = 0.06 (at node 5)
Injected flit rate average = 0.209722
	minimum = 0.172 (at node 3)
	maximum = 0.252 (at node 8)
Accepted flit rate average= 0.210833
	minimum = 0.186 (at node 0)
	maximum = 0.24 (at node 5)
Injected packet length average = 3.99894
Accepted packet length average = 3.99895
Total in-flight flits = 30 (0 measured)
latency change    = 0.0010829
throughput change = 0.0155468
Class 0:
Packet latency average = 20.0437
	minimum = 10
	maximum = 37
Network latency average = 19.7985
	minimum = 10
	maximum = 36
Slowest packet = 2946
Flit latency average = 16.3995
	minimum = 7
	maximum = 33
Slowest flit = 11787
Fragmentation average = 0.76699
	minimum = 0
	maximum = 8
Injected packet rate average = 0.0461111
	minimum = 0.04 (at node 2)
	maximum = 0.052 (at node 3)
Accepted packet rate average = 0.0457778
	minimum = 0.036 (at node 3)
	maximum = 0.055 (at node 7)
Injected flit rate average = 0.184444
	minimum = 0.16 (at node 2)
	maximum = 0.211 (at node 4)
Accepted flit rate average= 0.183
	minimum = 0.145 (at node 3)
	maximum = 0.218 (at node 7)
Injected packet length average = 4
Accepted packet length average = 3.99757
Total in-flight flits = 43 (0 measured)
latency change    = 0.0318345
throughput change = 0.152095
Class 0:
Packet latency average = 20.2864
	minimum = 10
	maximum = 37
Network latency average = 19.9356
	minimum = 10
	maximum = 36
Slowest packet = 2946
Flit latency average = 16.5073
	minimum = 7
	maximum = 33
Slowest flit = 11787
Fragmentation average = 0.836516
	minimum = 0
	maximum = 9
Injected packet rate average = 0.0466111
	minimum = 0.0415 (at node 3)
	maximum = 0.0535 (at node 1)
Accepted packet rate average = 0.0465556
	minimum = 0.0405 (at node 2)
	maximum = 0.0515 (at node 7)
Injected flit rate average = 0.186667
	minimum = 0.166 (at node 3)
	maximum = 0.214 (at node 1)
Accepted flit rate average= 0.186278
	minimum = 0.162 (at node 2)
	maximum = 0.205 (at node 7)
Injected packet length average = 4.00477
Accepted packet length average = 4.00119
Total in-flight flits = 33 (0 measured)
latency change    = 0.011964
throughput change = 0.0175962
Class 0:
Packet latency average = 20.4505
	minimum = 10
	maximum = 35
Network latency average = 20.0833
	minimum = 10
	maximum = 35
Slowest packet = 3669
Flit latency average = 16.6103
	minimum = 7
	maximum = 32
Slowest flit = 14679
Fragmentation average = 0.943694
	minimum = 0
	maximum = 6
Injected packet rate average = 0.0487778
	minimum = 0.034 (at node 1)
	maximum = 0.061 (at node 6)
Accepted packet rate average = 0.0493333
	minimum = 0.044 (at node 1)
	maximum = 0.063 (at node 3)
Injected flit rate average = 0.194778
	minimum = 0.136 (at node 1)
	maximum = 0.244 (at node 6)
Accepted flit rate average= 0.197
	minimum = 0.176 (at node 1)
	maximum = 0.252 (at node 3)
Injected packet length average = 3.99317
Accepted packet length average = 3.99324
Total in-flight flits = 16 (0 measured)
latency change    = 0.00802204
throughput change = 0.0544275
Class 0:
Packet latency average = 20.25
	minimum = 10
	maximum = 36
Network latency average = 19.8966
	minimum = 10
	maximum = 36
Slowest packet = 4197
Flit latency average = 16.4363
	minimum = 7
	maximum = 33
Slowest flit = 16791
Fragmentation average = 0.921591
	minimum = 0
	maximum = 9
Injected packet rate average = 0.0489444
	minimum = 0.0385 (at node 1)
	maximum = 0.0565 (at node 6)
Accepted packet rate average = 0.0488889
	minimum = 0.0405 (at node 1)
	maximum = 0.0575 (at node 3)
Injected flit rate average = 0.195556
	minimum = 0.154 (at node 1)
	maximum = 0.226 (at node 6)
Accepted flit rate average= 0.195944
	minimum = 0.162 (at node 1)
	maximum = 0.232 (at node 3)
Injected packet length average = 3.99546
Accepted packet length average = 4.00795
Total in-flight flits = 30 (0 measured)
latency change    = 0.00989879
throughput change = 0.00538701
Too many sample periods needed to converge
Simulation unstable, ending ...
Total run time 0.0857348
