BEGIN Configuration File: /home/s65oh/booksim2/runfiles/mesh_k4_inj0.05_pkt12.cfg
topology = mesh;
k = 4;
n = 2;
routing_function = dor;
traffic = uniform;
packet_size = 12;
injection_rate = 0.05;
sim_count = 100000;
warmup_periods = 1000;

END Configuration File: /home/s65oh/booksim2/runfiles/mesh_k4_inj0.05_pkt12.cfg
Class 0:
Packet latency average = 68.0196
	minimum = 18
	maximum = 313
Network latency average = 56.7091
	minimum = 18
	maximum = 313
Slowest packet = 481
Flit latency average = 34.4749
	minimum = 7
	maximum = 302
Slowest flit = 5783
Fragmentation average = 22.0028
	minimum = 0
	maximum = 179
Injected packet rate average = 0.048375
	minimum = 0.033 (at node 4)
	maximum = 0.059 (at node 11)
Accepted packet rate average = 0.0446875
	minimum = 0.037 (at node 11)
	maximum = 0.052 (at node 0)
Injected flit rate average = 0.57675
	minimum = 0.396 (at node 4)
	maximum = 0.708 (at node 11)
Accepted flit rate average= 0.54875
	minimum = 0.444 (at node 11)
	maximum = 0.627 (at node 0)
Injected packet length average = 11.9225
Accepted packet length average = 12.2797
Total in-flight flits = 508 (0 measured)
latency change    = 1
throughput change = 1
Class 0:
Packet latency average = 75.5993
	minimum = 18
	maximum = 374
Network latency average = 61.9538
	minimum = 18
	maximum = 313
Slowest packet = 481
Flit latency average = 38.1748
	minimum = 7
	maximum = 302
Slowest flit = 5783
Fragmentation average = 25.0904
	minimum = 0
	maximum = 220
Injected packet rate average = 0.0489062
	minimum = 0.0355 (at node 5)
	maximum = 0.056 (at node 11)
Accepted packet rate average = 0.0473437
	minimum = 0.0395 (at node 14)
	maximum = 0.054 (at node 8)
Injected flit rate average = 0.585906
	minimum = 0.425 (at node 5)
	maximum = 0.6715 (at node 11)
Accepted flit rate average= 0.574187
	minimum = 0.477 (at node 14)
	maximum = 0.648 (at node 8)
Injected packet length average = 11.9802
Accepted packet length average = 12.1281
Total in-flight flits = 406 (0 measured)
latency change    = 0.100262
throughput change = 0.0443017
Class 0:
Packet latency average = 79.4765
	minimum = 18
	maximum = 322
Network latency average = 63.0099
	minimum = 18
	maximum = 264
Slowest packet = 1824
Flit latency average = 38.1103
	minimum = 7
	maximum = 247
Slowest flit = 21899
Fragmentation average = 27.158
	minimum = 0
	maximum = 163
Injected packet rate average = 0.051125
	minimum = 0.042 (at node 2)
	maximum = 0.066 (at node 8)
Accepted packet rate average = 0.050625
	minimum = 0.04 (at node 4)
	maximum = 0.058 (at node 15)
Injected flit rate average = 0.609875
	minimum = 0.497 (at node 5)
	maximum = 0.782 (at node 8)
Accepted flit rate average= 0.60675
	minimum = 0.481 (at node 4)
	maximum = 0.709 (at node 15)
Injected packet length average = 11.9291
Accepted packet length average = 11.9852
Total in-flight flits = 514 (0 measured)
latency change    = 0.0487842
throughput change = 0.0536671
Class 0:
Packet latency average = 75.0219
	minimum = 18
	maximum = 322
Network latency average = 60.6823
	minimum = 18
	maximum = 264
Slowest packet = 1824
Flit latency average = 36.5851
	minimum = 7
	maximum = 247
Slowest flit = 21899
Fragmentation average = 25.4997
	minimum = 0
	maximum = 163
Injected packet rate average = 0.0498125
	minimum = 0.043 (at node 13)
	maximum = 0.0585 (at node 4)
Accepted packet rate average = 0.0499687
	minimum = 0.0395 (at node 4)
	maximum = 0.056 (at node 3)
Injected flit rate average = 0.597125
	minimum = 0.516 (at node 13)
	maximum = 0.702 (at node 4)
Accepted flit rate average= 0.597844
	minimum = 0.474 (at node 4)
	maximum = 0.6635 (at node 3)
Injected packet length average = 11.9875
Accepted packet length average = 11.9644
Total in-flight flits = 403 (0 measured)
latency change    = 0.0593781
throughput change = 0.0148973
Class 0:
Packet latency average = 69.5553
	minimum = 18
	maximum = 173
Network latency average = 59.6021
	minimum = 18
	maximum = 173
Slowest packet = 3031
Flit latency average = 36.0994
	minimum = 7
	maximum = 162
Slowest flit = 36383
Fragmentation average = 24.4395
	minimum = 0
	maximum = 139
Injected packet rate average = 0.0475
	minimum = 0.041 (at node 7)
	maximum = 0.056 (at node 11)
Accepted packet rate average = 0.0480625
	minimum = 0.04 (at node 5)
	maximum = 0.068 (at node 6)
Injected flit rate average = 0.570187
	minimum = 0.484 (at node 7)
	maximum = 0.683 (at node 11)
Accepted flit rate average= 0.577313
	minimum = 0.477 (at node 5)
	maximum = 0.772 (at node 6)
Injected packet length average = 12.0039
Accepted packet length average = 12.0117
Total in-flight flits = 286 (0 measured)
latency change    = 0.0785939
throughput change = 0.0355635
Class 0:
Packet latency average = 71.6284
	minimum = 18
	maximum = 209
Network latency average = 60.1031
	minimum = 18
	maximum = 197
Slowest packet = 3031
Flit latency average = 36.4432
	minimum = 7
	maximum = 186
Slowest flit = 50939
Fragmentation average = 24.8444
	minimum = 0
	maximum = 150
Injected packet rate average = 0.0480625
	minimum = 0.0425 (at node 5)
	maximum = 0.053 (at node 0)
Accepted packet rate average = 0.0475937
	minimum = 0.0405 (at node 4)
	maximum = 0.0585 (at node 6)
Injected flit rate average = 0.577219
	minimum = 0.51 (at node 5)
	maximum = 0.636 (at node 0)
Accepted flit rate average= 0.575094
	minimum = 0.4935 (at node 4)
	maximum = 0.6875 (at node 6)
Injected packet length average = 12.0098
Accepted packet length average = 12.0834
Total in-flight flits = 456 (0 measured)
latency change    = 0.0289424
throughput change = 0.00385807
Class 0:
Packet latency average = 84.4145
	minimum = 18
	maximum = 331
Network latency average = 65.9786
	minimum = 18
	maximum = 283
Slowest packet = 4929
Flit latency average = 40.1703
	minimum = 7
	maximum = 272
Slowest flit = 59159
Fragmentation average = 29.0986
	minimum = 0
	maximum = 242
Injected packet rate average = 0.0516875
	minimum = 0.041 (at node 15)
	maximum = 0.063 (at node 1)
Accepted packet rate average = 0.052625
	minimum = 0.044 (at node 6)
	maximum = 0.067 (at node 1)
Injected flit rate average = 0.619125
	minimum = 0.493 (at node 15)
	maximum = 0.756 (at node 1)
Accepted flit rate average= 0.625375
	minimum = 0.513 (at node 6)
	maximum = 0.823 (at node 1)
Injected packet length average = 11.9782
Accepted packet length average = 11.8836
Total in-flight flits = 374 (0 measured)
latency change    = 0.151468
throughput change = 0.0804018
Class 0:
Packet latency average = 82.9246
	minimum = 18
	maximum = 331
Network latency average = 65.3908
	minimum = 18
	maximum = 283
Slowest packet = 4929
Flit latency average = 39.8318
	minimum = 7
	maximum = 272
Slowest flit = 59159
Fragmentation average = 28.7195
	minimum = 0
	maximum = 242
Injected packet rate average = 0.0510938
	minimum = 0.0415 (at node 6)
	maximum = 0.06 (at node 1)
Accepted packet rate average = 0.0518125
	minimum = 0.042 (at node 13)
	maximum = 0.0605 (at node 1)
Injected flit rate average = 0.612844
	minimum = 0.498 (at node 6)
	maximum = 0.721 (at node 1)
Accepted flit rate average= 0.616437
	minimum = 0.5 (at node 13)
	maximum = 0.7245 (at node 1)
Injected packet length average = 11.9945
Accepted packet length average = 11.8975
Total in-flight flits = 350 (0 measured)
latency change    = 0.0179667
throughput change = 0.0144986
Class 0:
Packet latency average = 84.7937
	minimum = 18
	maximum = 248
Network latency average = 66.0075
	minimum = 18
	maximum = 244
Slowest packet = 6207
Flit latency average = 40.4095
	minimum = 7
	maximum = 229
Slowest flit = 75443
Fragmentation average = 28.5648
	minimum = 0
	maximum = 201
Injected packet rate average = 0.0509375
	minimum = 0.039 (at node 11)
	maximum = 0.065 (at node 4)
Accepted packet rate average = 0.0496875
	minimum = 0.04 (at node 1)
	maximum = 0.061 (at node 13)
Injected flit rate average = 0.609938
	minimum = 0.468 (at node 11)
	maximum = 0.774 (at node 4)
Accepted flit rate average= 0.602625
	minimum = 0.48 (at node 1)
	maximum = 0.736 (at node 13)
Injected packet length average = 11.9742
Accepted packet length average = 12.1283
Total in-flight flits = 488 (0 measured)
latency change    = 0.0220429
throughput change = 0.0229206
Class 0:
Packet latency average = 86.9885
	minimum = 18
	maximum = 569
Network latency average = 67.97
	minimum = 18
	maximum = 545
Slowest packet = 7083
Flit latency average = 42.2382
	minimum = 7
	maximum = 528
Slowest flit = 85003
Fragmentation average = 29.6112
	minimum = 0
	maximum = 348
Injected packet rate average = 0.0492187
	minimum = 0.043 (at node 9)
	maximum = 0.057 (at node 14)
Accepted packet rate average = 0.0490312
	minimum = 0.0405 (at node 5)
	maximum = 0.059 (at node 11)
Injected flit rate average = 0.591063
	minimum = 0.516 (at node 9)
	maximum = 0.682 (at node 14)
Accepted flit rate average= 0.591125
	minimum = 0.482 (at node 5)
	maximum = 0.711 (at node 11)
Injected packet length average = 12.0089
Accepted packet length average = 12.0561
Total in-flight flits = 334 (0 measured)
latency change    = 0.0252311
throughput change = 0.0194544
Too many sample periods needed to converge
Simulation unstable, ending ...
Total run time 0.397536
