BEGIN Configuration File: /home/s65oh/booksim2/runfiles/mesh_k5_inj0.05_pkt4.cfg
topology = mesh;
k = 5;
n = 2;
routing_function = dor;
traffic = uniform;
packet_size = 4;
injection_rate = 0.05;
sim_count = 100000;
warmup_periods = 1000;

END Configuration File: /home/s65oh/booksim2/runfiles/mesh_k5_inj0.05_pkt4.cfg
Class 0:
Packet latency average = 27.5338
	minimum = 10
	maximum = 65
Network latency average = 27.1846
	minimum = 10
	maximum = 61
Slowest packet = 1007
Flit latency average = 23.5613
	minimum = 7
	maximum = 58
Slowest flit = 4031
Fragmentation average = 1.25815
	minimum = 0
	maximum = 26
Injected packet rate average = 0.04956
	minimum = 0.035 (at node 12)
	maximum = 0.069 (at node 5)
Accepted packet rate average = 0.04788
	minimum = 0.038 (at node 2)
	maximum = 0.06 (at node 19)
Injected flit rate average = 0.198
	minimum = 0.14 (at node 12)
	maximum = 0.276 (at node 5)
Accepted flit rate average= 0.19256
	minimum = 0.152 (at node 2)
	maximum = 0.24 (at node 19)
Injected packet length average = 3.99516
Accepted packet length average = 4.02172
Total in-flight flits = 142 (0 measured)
latency change    = 1
throughput change = 1
Class 0:
Packet latency average = 27.8192
	minimum = 10
	maximum = 65
Network latency average = 27.4802
	minimum = 10
	maximum = 65
Slowest packet = 1007
Flit latency average = 23.8079
	minimum = 7
	maximum = 62
Slowest flit = 7255
Fragmentation average = 1.3127
	minimum = 0
	maximum = 26
Injected packet rate average = 0.0501
	minimum = 0.0415 (at node 12)
	maximum = 0.061 (at node 5)
Accepted packet rate average = 0.04944
	minimum = 0.041 (at node 18)
	maximum = 0.0595 (at node 22)
Injected flit rate average = 0.20018
	minimum = 0.166 (at node 12)
	maximum = 0.244 (at node 5)
Accepted flit rate average= 0.19808
	minimum = 0.164 (at node 18)
	maximum = 0.238 (at node 22)
Injected packet length average = 3.99561
Accepted packet length average = 4.00647
Total in-flight flits = 116 (0 measured)
latency change    = 0.010257
throughput change = 0.0278675
Class 0:
Packet latency average = 28.0386
	minimum = 10
	maximum = 60
Network latency average = 27.6876
	minimum = 10
	maximum = 60
Slowest packet = 2689
Flit latency average = 24.0781
	minimum = 7
	maximum = 57
Slowest flit = 10759
Fragmentation average = 1.19313
	minimum = 0
	maximum = 14
Injected packet rate average = 0.0472
	minimum = 0.029 (at node 7)
	maximum = 0.063 (at node 18)
Accepted packet rate average = 0.0466
	minimum = 0.034 (at node 17)
	maximum = 0.062 (at node 5)
Injected flit rate average = 0.18888
	minimum = 0.116 (at node 7)
	maximum = 0.252 (at node 18)
Accepted flit rate average= 0.18644
	minimum = 0.136 (at node 17)
	maximum = 0.245 (at node 5)
Injected packet length average = 4.00169
Accepted packet length average = 4.00086
Total in-flight flits = 175 (0 measured)
latency change    = 0.00782677
throughput change = 0.062433
Class 0:
Packet latency average = 28.1101
	minimum = 10
	maximum = 60
Network latency average = 27.7208
	minimum = 10
	maximum = 60
Slowest packet = 2689
Flit latency average = 24.068
	minimum = 7
	maximum = 57
Slowest flit = 10759
Fragmentation average = 1.27918
	minimum = 0
	maximum = 15
Injected packet rate average = 0.04854
	minimum = 0.0385 (at node 7)
	maximum = 0.057 (at node 18)
Accepted packet rate average = 0.0485
	minimum = 0.037 (at node 9)
	maximum = 0.0565 (at node 5)
Injected flit rate average = 0.19412
	minimum = 0.154 (at node 7)
	maximum = 0.228 (at node 18)
Accepted flit rate average= 0.1937
	minimum = 0.148 (at node 9)
	maximum = 0.2255 (at node 8)
Injected packet length average = 3.99918
Accepted packet length average = 3.99381
Total in-flight flits = 139 (0 measured)
latency change    = 0.00254273
throughput change = 0.0374806
Class 0:
Packet latency average = 28.4708
	minimum = 10
	maximum = 58
Network latency average = 28.0789
	minimum = 10
	maximum = 56
Slowest packet = 5140
Flit latency average = 24.3864
	minimum = 7
	maximum = 53
Slowest flit = 21367
Fragmentation average = 1.35489
	minimum = 0
	maximum = 12
Injected packet rate average = 0.05096
	minimum = 0.043 (at node 9)
	maximum = 0.066 (at node 11)
Accepted packet rate average = 0.05072
	minimum = 0.037 (at node 12)
	maximum = 0.071 (at node 11)
Injected flit rate average = 0.20412
	minimum = 0.172 (at node 18)
	maximum = 0.264 (at node 11)
Accepted flit rate average= 0.20352
	minimum = 0.148 (at node 12)
	maximum = 0.284 (at node 11)
Injected packet length average = 4.00549
Accepted packet length average = 4.01262
Total in-flight flits = 147 (0 measured)
latency change    = 0.0126697
throughput change = 0.0482508
Class 0:
Packet latency average = 28.1348
	minimum = 10
	maximum = 59
Network latency average = 27.7666
	minimum = 10
	maximum = 59
Slowest packet = 6803
Flit latency average = 24.1025
	minimum = 7
	maximum = 56
Slowest flit = 27212
Fragmentation average = 1.27898
	minimum = 0
	maximum = 24
Injected packet rate average = 0.05064
	minimum = 0.0435 (at node 6)
	maximum = 0.0585 (at node 11)
Accepted packet rate average = 0.0509
	minimum = 0.042 (at node 12)
	maximum = 0.065 (at node 11)
Injected flit rate average = 0.20278
	minimum = 0.175 (at node 6)
	maximum = 0.235 (at node 12)
Accepted flit rate average= 0.20372
	minimum = 0.168 (at node 12)
	maximum = 0.26 (at node 11)
Injected packet length average = 4.00434
Accepted packet length average = 4.00236
Total in-flight flits = 81 (0 measured)
latency change    = 0.0119442
throughput change = 0.00098174
Class 0:
Packet latency average = 28.1643
	minimum = 10
	maximum = 59
Network latency average = 27.7963
	minimum = 10
	maximum = 57
Slowest packet = 7603
Flit latency average = 24.0524
	minimum = 7
	maximum = 54
Slowest flit = 31923
Fragmentation average = 1.43168
	minimum = 0
	maximum = 15
Injected packet rate average = 0.0482
	minimum = 0.036 (at node 11)
	maximum = 0.059 (at node 15)
Accepted packet rate average = 0.04772
	minimum = 0.035 (at node 9)
	maximum = 0.062 (at node 21)
Injected flit rate average = 0.19276
	minimum = 0.144 (at node 11)
	maximum = 0.236 (at node 15)
Accepted flit rate average= 0.19092
	minimum = 0.14 (at node 9)
	maximum = 0.245 (at node 21)
Injected packet length average = 3.99917
Accepted packet length average = 4.00084
Total in-flight flits = 128 (0 measured)
latency change    = 0.00104805
throughput change = 0.0670438
Class 0:
Packet latency average = 28.0856
	minimum = 10
	maximum = 59
Network latency average = 27.6669
	minimum = 10
	maximum = 57
Slowest packet = 7603
Flit latency average = 23.9248
	minimum = 7
	maximum = 54
Slowest flit = 31923
Fragmentation average = 1.44102
	minimum = 0
	maximum = 16
Injected packet rate average = 0.0503
	minimum = 0.04 (at node 11)
	maximum = 0.0605 (at node 10)
Accepted packet rate average = 0.05002
	minimum = 0.039 (at node 18)
	maximum = 0.06 (at node 21)
Injected flit rate average = 0.20114
	minimum = 0.16 (at node 11)
	maximum = 0.242 (at node 10)
Accepted flit rate average= 0.20016
	minimum = 0.156 (at node 18)
	maximum = 0.2385 (at node 21)
Injected packet length average = 3.99881
Accepted packet length average = 4.0016
Total in-flight flits = 133 (0 measured)
latency change    = 0.00280307
throughput change = 0.0461631
Class 0:
Packet latency average = 28.4202
	minimum = 10
	maximum = 59
Network latency average = 28.0038
	minimum = 10
	maximum = 58
Slowest packet = 10553
Flit latency average = 24.2574
	minimum = 7
	maximum = 55
Slowest flit = 44483
Fragmentation average = 1.46218
	minimum = 0
	maximum = 19
Injected packet rate average = 0.0526
	minimum = 0.041 (at node 11)
	maximum = 0.065 (at node 13)
Accepted packet rate average = 0.05236
	minimum = 0.039 (at node 19)
	maximum = 0.067 (at node 4)
Injected flit rate average = 0.21048
	minimum = 0.164 (at node 11)
	maximum = 0.26 (at node 13)
Accepted flit rate average= 0.2096
	minimum = 0.159 (at node 19)
	maximum = 0.268 (at node 4)
Injected packet length average = 4.00152
Accepted packet length average = 4.00306
Total in-flight flits = 153 (0 measured)
latency change    = 0.0117734
throughput change = 0.0450382
Class 0:
Packet latency average = 28.1411
	minimum = 10
	maximum = 59
Network latency average = 27.7414
	minimum = 10
	maximum = 58
Slowest packet = 10553
Flit latency average = 24.0426
	minimum = 7
	maximum = 55
Slowest flit = 44483
Fragmentation average = 1.36324
	minimum = 0
	maximum = 19
Injected packet rate average = 0.0508
	minimum = 0.0435 (at node 12)
	maximum = 0.0675 (at node 3)
Accepted packet rate average = 0.05104
	minimum = 0.04 (at node 6)
	maximum = 0.0605 (at node 20)
Injected flit rate average = 0.20326
	minimum = 0.174 (at node 12)
	maximum = 0.27 (at node 3)
Accepted flit rate average= 0.2041
	minimum = 0.16 (at node 6)
	maximum = 0.242 (at node 20)
Injected packet length average = 4.00118
Accepted packet length average = 3.99882
Total in-flight flits = 88 (0 measured)
latency change    = 0.00991797
throughput change = 0.0269476
Too many sample periods needed to converge
Simulation unstable, ending ...
Total run time 0.338753
