BEGIN Configuration File: /home/s65oh/booksim2/runfiles/mesh_k3_inj0.1_pkt8.cfg
topology = mesh;
k = 3;
n = 2;
routing_function = dor;
traffic = uniform;
packet_size = 8;
injection_rate = 0.1;
sim_count = 100000;
warmup_periods = 1000;

END Configuration File: /home/s65oh/booksim2/runfiles/mesh_k3_inj0.1_pkt8.cfg
Class 0:
Packet latency average = 62.2704
	minimum = 14
	maximum = 234
Network latency average = 52.5304
	minimum = 14
	maximum = 212
Slowest packet = 429
Flit latency average = 35.1793
	minimum = 7
	maximum = 205
Slowest flit = 3439
Fragmentation average = 21.0996
	minimum = 0
	maximum = 134
Injected packet rate average = 0.0915556
	minimum = 0.068 (at node 4)
	maximum = 0.107 (at node 8)
Accepted packet rate average = 0.0858889
	minimum = 0.081 (at node 1)
	maximum = 0.093 (at node 2)
Injected flit rate average = 0.730111
	minimum = 0.544 (at node 4)
	maximum = 0.853 (at node 8)
Accepted flit rate average= 0.700111
	minimum = 0.658 (at node 1)
	maximum = 0.773 (at node 2)
Injected packet length average = 7.97451
Accepted packet length average = 8.15136
Total in-flight flits = 291 (0 measured)
latency change    = 1
throughput change = 1
Class 0:
Packet latency average = 66.7729
	minimum = 14
	maximum = 346
Network latency average = 56.4338
	minimum = 14
	maximum = 329
Slowest packet = 1302
Flit latency average = 38.0322
	minimum = 7
	maximum = 322
Slowest flit = 10423
Fragmentation average = 23.1186
	minimum = 0
	maximum = 179
Injected packet rate average = 0.0948889
	minimum = 0.08 (at node 4)
	maximum = 0.107 (at node 8)
Accepted packet rate average = 0.0927222
	minimum = 0.0865 (at node 1)
	maximum = 0.1005 (at node 7)
Injected flit rate average = 0.758056
	minimum = 0.64 (at node 4)
	maximum = 0.854 (at node 8)
Accepted flit rate average= 0.746333
	minimum = 0.692 (at node 1)
	maximum = 0.8055 (at node 7)
Injected packet length average = 7.98888
Accepted packet length average = 8.04913
Total in-flight flits = 230 (0 measured)
latency change    = 0.0674307
throughput change = 0.0619324
Class 0:
Packet latency average = 63.9151
	minimum = 15
	maximum = 252
Network latency average = 53.559
	minimum = 15
	maximum = 203
Slowest packet = 2306
Flit latency average = 35.1839
	minimum = 7
	maximum = 196
Slowest flit = 18455
Fragmentation average = 23.0354
	minimum = 0
	maximum = 157
Injected packet rate average = 0.0957778
	minimum = 0.083 (at node 4)
	maximum = 0.118 (at node 3)
Accepted packet rate average = 0.0942222
	minimum = 0.083 (at node 0)
	maximum = 0.106 (at node 2)
Injected flit rate average = 0.766556
	minimum = 0.659 (at node 4)
	maximum = 0.945 (at node 3)
Accepted flit rate average= 0.757
	minimum = 0.672 (at node 0)
	maximum = 0.853 (at node 5)
Injected packet length average = 8.00348
Accepted packet length average = 8.0342
Total in-flight flits = 313 (0 measured)
latency change    = 0.0447128
throughput change = 0.0140907
Class 0:
Packet latency average = 64.0316
	minimum = 14
	maximum = 252
Network latency average = 53.4974
	minimum = 14
	maximum = 203
Slowest packet = 2306
Flit latency average = 35.3056
	minimum = 7
	maximum = 196
Slowest flit = 18455
Fragmentation average = 22.6834
	minimum = 0
	maximum = 162
Injected packet rate average = 0.0966111
	minimum = 0.086 (at node 8)
	maximum = 0.108 (at node 3)
Accepted packet rate average = 0.0949444
	minimum = 0.0875 (at node 3)
	maximum = 0.105 (at node 7)
Injected flit rate average = 0.772167
	minimum = 0.69 (at node 8)
	maximum = 0.8625 (at node 3)
Accepted flit rate average= 0.763611
	minimum = 0.7065 (at node 0)
	maximum = 0.852 (at node 7)
Injected packet length average = 7.99252
Accepted packet length average = 8.04272
Total in-flight flits = 397 (0 measured)
latency change    = 0.00181946
throughput change = 0.00865769
Class 0:
Packet latency average = 100.307
	minimum = 17
	maximum = 374
Network latency average = 83.3616
	minimum = 17
	maximum = 362
Slowest packet = 3934
Flit latency average = 57.4181
	minimum = 7
	maximum = 355
Slowest flit = 31479
Fragmentation average = 39.4906
	minimum = 0
	maximum = 201
Injected packet rate average = 0.101444
	minimum = 0.091 (at node 4)
	maximum = 0.109 (at node 7)
Accepted packet rate average = 0.100778
	minimum = 0.086 (at node 1)
	maximum = 0.121 (at node 8)
Injected flit rate average = 0.813222
	minimum = 0.732 (at node 4)
	maximum = 0.872 (at node 7)
Accepted flit rate average= 0.809444
	minimum = 0.688 (at node 1)
	maximum = 0.966 (at node 8)
Injected packet length average = 8.01643
Accepted packet length average = 8.03197
Total in-flight flits = 416 (0 measured)
latency change    = 0.361641
throughput change = 0.0566232
Class 0:
Packet latency average = 104.878
	minimum = 14
	maximum = 514
Network latency average = 84.2713
	minimum = 14
	maximum = 511
Slowest packet = 4520
Flit latency average = 57.749
	minimum = 7
	maximum = 504
Slowest flit = 36167
Fragmentation average = 39.6825
	minimum = 0
	maximum = 324
Injected packet rate average = 0.100722
	minimum = 0.0925 (at node 5)
	maximum = 0.1105 (at node 7)
Accepted packet rate average = 0.0997222
	minimum = 0.0875 (at node 1)
	maximum = 0.107 (at node 7)
Injected flit rate average = 0.805944
	minimum = 0.7435 (at node 5)
	maximum = 0.882 (at node 7)
Accepted flit rate average= 0.798667
	minimum = 0.6995 (at node 1)
	maximum = 0.8595 (at node 7)
Injected packet length average = 8.00165
Accepted packet length average = 8.00891
Total in-flight flits = 525 (0 measured)
latency change    = 0.0435886
throughput change = 0.0134947
Class 0:
Packet latency average = 103.953
	minimum = 14
	maximum = 416
Network latency average = 77.6993
	minimum = 14
	maximum = 406
Slowest packet = 5166
Flit latency average = 53.3077
	minimum = 7
	maximum = 399
Slowest flit = 41335
Fragmentation average = 34.9183
	minimum = 0
	maximum = 332
Injected packet rate average = 0.100333
	minimum = 0.086 (at node 5)
	maximum = 0.112 (at node 4)
Accepted packet rate average = 0.102
	minimum = 0.093 (at node 0)
	maximum = 0.109 (at node 2)
Injected flit rate average = 0.802667
	minimum = 0.688 (at node 5)
	maximum = 0.891 (at node 4)
Accepted flit rate average= 0.814222
	minimum = 0.727 (at node 0)
	maximum = 0.887 (at node 2)
Injected packet length average = 8
Accepted packet length average = 7.98257
Total in-flight flits = 421 (0 measured)
latency change    = 0.00889665
throughput change = 0.0191048
Class 0:
Packet latency average = 91.1906
	minimum = 14
	maximum = 416
Network latency average = 72.1019
	minimum = 14
	maximum = 406
Slowest packet = 5166
Flit latency average = 48.8382
	minimum = 7
	maximum = 399
Slowest flit = 41335
Fragmentation average = 32.9302
	minimum = 0
	maximum = 332
Injected packet rate average = 0.0989444
	minimum = 0.093 (at node 7)
	maximum = 0.1065 (at node 4)
Accepted packet rate average = 0.100278
	minimum = 0.0895 (at node 0)
	maximum = 0.1055 (at node 2)
Injected flit rate average = 0.791167
	minimum = 0.7465 (at node 7)
	maximum = 0.851 (at node 4)
Accepted flit rate average= 0.799889
	minimum = 0.705 (at node 0)
	maximum = 0.8615 (at node 2)
Injected packet length average = 7.99607
Accepted packet length average = 7.97673
Total in-flight flits = 375 (0 measured)
latency change    = 0.139955
throughput change = 0.0179192
Class 0:
Packet latency average = 91.2602
	minimum = 14
	maximum = 368
Network latency average = 77.4939
	minimum = 14
	maximum = 360
Slowest packet = 7130
Flit latency average = 53.3336
	minimum = 7
	maximum = 353
Slowest flit = 57047
Fragmentation average = 35.6777
	minimum = 0
	maximum = 232
Injected packet rate average = 0.101778
	minimum = 0.09 (at node 1)
	maximum = 0.108 (at node 3)
Accepted packet rate average = 0.100333
	minimum = 0.091 (at node 4)
	maximum = 0.11 (at node 2)
Injected flit rate average = 0.815778
	minimum = 0.727 (at node 1)
	maximum = 0.866 (at node 5)
Accepted flit rate average= 0.807444
	minimum = 0.756 (at node 4)
	maximum = 0.868 (at node 6)
Injected packet length average = 8.01528
Accepted packet length average = 8.04762
Total in-flight flits = 436 (0 measured)
latency change    = 0.000763333
throughput change = 0.00935737
Class 0:
Packet latency average = 88.3649
	minimum = 14
	maximum = 373
Network latency average = 72.9432
	minimum = 14
	maximum = 360
Slowest packet = 7130
Flit latency average = 49.5998
	minimum = 7
	maximum = 353
Slowest flit = 57047
Fragmentation average = 33.6262
	minimum = 0
	maximum = 277
Injected packet rate average = 0.100056
	minimum = 0.0935 (at node 0)
	maximum = 0.1045 (at node 7)
Accepted packet rate average = 0.0997222
	minimum = 0.0935 (at node 7)
	maximum = 0.11 (at node 3)
Injected flit rate average = 0.802222
	minimum = 0.7485 (at node 0)
	maximum = 0.836 (at node 7)
Accepted flit rate average= 0.799444
	minimum = 0.7625 (at node 7)
	maximum = 0.8825 (at node 3)
Injected packet length average = 8.01777
Accepted packet length average = 8.01671
Total in-flight flits = 393 (0 measured)
latency change    = 0.0327657
throughput change = 0.0100069
Too many sample periods needed to converge
Simulation unstable, ending ...
Total run time 0.232094
