BEGIN Configuration File: /home/s65oh/booksim2/runfiles/mesh_k3_inj0.05_pkt8.cfg
topology = mesh;
k = 3;
n = 2;
routing_function = dor;
traffic = uniform;
packet_size = 8;
injection_rate = 0.05;
sim_count = 100000;
warmup_periods = 1000;

END Configuration File: /home/s65oh/booksim2/runfiles/mesh_k3_inj0.05_pkt8.cfg
Class 0:
Packet latency average = 32.8134
	minimum = 14
	maximum = 84
Network latency average = 30.4147
	minimum = 14
	maximum = 64
Slowest packet = 113
Flit latency average = 20.194
	minimum = 7
	maximum = 57
Slowest flit = 911
Fragmentation average = 6.32719
	minimum = 0
	maximum = 40
Injected packet rate average = 0.0488889
	minimum = 0.039 (at node 3)
	maximum = 0.061 (at node 5)
Accepted packet rate average = 0.0482222
	minimum = 0.039 (at node 1)
	maximum = 0.062 (at node 2)
Injected flit rate average = 0.391
	minimum = 0.311 (at node 6)
	maximum = 0.488 (at node 5)
Accepted flit rate average= 0.387778
	minimum = 0.312 (at node 1)
	maximum = 0.502 (at node 2)
Injected packet length average = 7.99773
Accepted packet length average = 8.04147
Total in-flight flits = 30 (0 measured)
latency change    = 1
throughput change = 1
Class 0:
Packet latency average = 30.9158
	minimum = 14
	maximum = 84
Network latency average = 28.7739
	minimum = 14
	maximum = 64
Slowest packet = 113
Flit latency average = 19.0564
	minimum = 7
	maximum = 57
Slowest flit = 911
Fragmentation average = 5.38178
	minimum = 0
	maximum = 40
Injected packet rate average = 0.049
	minimum = 0.041 (at node 6)
	maximum = 0.063 (at node 5)
Accepted packet rate average = 0.0481667
	minimum = 0.046 (at node 0)
	maximum = 0.0535 (at node 2)
Injected flit rate average = 0.3915
	minimum = 0.328 (at node 6)
	maximum = 0.504 (at node 5)
Accepted flit rate average= 0.387167
	minimum = 0.368 (at node 8)
	maximum = 0.428 (at node 2)
Injected packet length average = 7.9898
Accepted packet length average = 8.03806
Total in-flight flits = 87 (0 measured)
latency change    = 0.0613784
throughput change = 0.00157842
Class 0:
Packet latency average = 32.1031
	minimum = 14
	maximum = 114
Network latency average = 29.7763
	minimum = 14
	maximum = 100
Slowest packet = 1193
Flit latency average = 19.5834
	minimum = 7
	maximum = 93
Slowest flit = 9551
Fragmentation average = 6.24781
	minimum = 0
	maximum = 48
Injected packet rate average = 0.05
	minimum = 0.04 (at node 4)
	maximum = 0.057 (at node 5)
Accepted packet rate average = 0.0506667
	minimum = 0.043 (at node 1)
	maximum = 0.064 (at node 7)
Injected flit rate average = 0.400444
	minimum = 0.32 (at node 4)
	maximum = 0.455 (at node 5)
Accepted flit rate average= 0.403556
	minimum = 0.35 (at node 1)
	maximum = 0.503 (at node 7)
Injected packet length average = 8.00889
Accepted packet length average = 7.96491
Total in-flight flits = 55 (0 measured)
latency change    = 0.036983
throughput change = 0.0406112
Class 0:
Packet latency average = 30.7434
	minimum = 14
	maximum = 114
Network latency average = 28.5724
	minimum = 14
	maximum = 100
Slowest packet = 1193
Flit latency average = 18.8761
	minimum = 7
	maximum = 93
Slowest flit = 9551
Fragmentation average = 5.32155
	minimum = 0
	maximum = 48
Injected packet rate average = 0.0488333
	minimum = 0.0415 (at node 2)
	maximum = 0.0525 (at node 8)
Accepted packet rate average = 0.0487222
	minimum = 0.0415 (at node 1)
	maximum = 0.054 (at node 7)
Injected flit rate average = 0.390444
	minimum = 0.332 (at node 2)
	maximum = 0.4185 (at node 8)
Accepted flit rate average= 0.389778
	minimum = 0.3435 (at node 1)
	maximum = 0.4285 (at node 7)
Injected packet length average = 7.99545
Accepted packet length average = 8
Total in-flight flits = 103 (0 measured)
latency change    = 0.0442249
throughput change = 0.0353478
Class 0:
Packet latency average = 32.5385
	minimum = 14
	maximum = 91
Network latency average = 30.3721
	minimum = 14
	maximum = 84
Slowest packet = 2062
Flit latency average = 19.8749
	minimum = 7
	maximum = 77
Slowest flit = 16503
Fragmentation average = 7.04158
	minimum = 0
	maximum = 50
Injected packet rate average = 0.0532222
	minimum = 0.042 (at node 1)
	maximum = 0.062 (at node 7)
Accepted packet rate average = 0.0534444
	minimum = 0.045 (at node 3)
	maximum = 0.061 (at node 5)
Injected flit rate average = 0.426444
	minimum = 0.336 (at node 1)
	maximum = 0.495 (at node 5)
Accepted flit rate average= 0.427222
	minimum = 0.36 (at node 3)
	maximum = 0.493 (at node 5)
Injected packet length average = 8.01253
Accepted packet length average = 7.99376
Total in-flight flits = 90 (0 measured)
latency change    = 0.055166
throughput change = 0.0876463
Class 0:
Packet latency average = 32.2732
	minimum = 14
	maximum = 91
Network latency average = 30.1234
	minimum = 14
	maximum = 84
Slowest packet = 2062
Flit latency average = 19.7536
	minimum = 7
	maximum = 77
Slowest flit = 16503
Fragmentation average = 6.68882
	minimum = 0
	maximum = 50
Injected packet rate average = 0.0525
	minimum = 0.0465 (at node 6)
	maximum = 0.0625 (at node 7)
Accepted packet rate average = 0.0526667
	minimum = 0.0465 (at node 8)
	maximum = 0.0595 (at node 2)
Injected flit rate average = 0.419778
	minimum = 0.372 (at node 6)
	maximum = 0.4975 (at node 7)
Accepted flit rate average= 0.420889
	minimum = 0.373 (at node 0)
	maximum = 0.4765 (at node 5)
Injected packet length average = 7.99577
Accepted packet length average = 7.99156
Total in-flight flits = 87 (0 measured)
latency change    = 0.00821904
throughput change = 0.0150475
Class 0:
Packet latency average = 30.6988
	minimum = 14
	maximum = 77
Network latency average = 28.5036
	minimum = 14
	maximum = 77
Slowest packet = 2946
Flit latency average = 19.0492
	minimum = 7
	maximum = 70
Slowest flit = 23575
Fragmentation average = 5
	minimum = 0
	maximum = 46
Injected packet rate average = 0.0461111
	minimum = 0.038 (at node 3)
	maximum = 0.056 (at node 5)
Accepted packet rate average = 0.0461111
	minimum = 0.036 (at node 2)
	maximum = 0.058 (at node 7)
Injected flit rate average = 0.368889
	minimum = 0.307 (at node 1)
	maximum = 0.446 (at node 5)
Accepted flit rate average= 0.368333
	minimum = 0.295 (at node 2)
	maximum = 0.452 (at node 7)
Injected packet length average = 8
Accepted packet length average = 7.98795
Total in-flight flits = 92 (0 measured)
latency change    = 0.0512858
throughput change = 0.142685
Class 0:
Packet latency average = 30.5938
	minimum = 14
	maximum = 77
Network latency average = 28.367
	minimum = 14
	maximum = 77
Slowest packet = 2946
Flit latency average = 18.8154
	minimum = 7
	maximum = 70
Slowest flit = 23575
Fragmentation average = 5.07126
	minimum = 0
	maximum = 48
Injected packet rate average = 0.0466667
	minimum = 0.04 (at node 2)
	maximum = 0.0555 (at node 5)
Accepted packet rate average = 0.0467778
	minimum = 0.0405 (at node 2)
	maximum = 0.053 (at node 7)
Injected flit rate average = 0.373611
	minimum = 0.32 (at node 2)
	maximum = 0.4415 (at node 5)
Accepted flit rate average= 0.374167
	minimum = 0.326 (at node 2)
	maximum = 0.418 (at node 7)
Injected packet length average = 8.00595
Accepted packet length average = 7.99881
Total in-flight flits = 72 (0 measured)
latency change    = 0.00343112
throughput change = 0.0155902
Class 0:
Packet latency average = 30.2207
	minimum = 14
	maximum = 66
Network latency average = 28.1847
	minimum = 14
	maximum = 66
Slowest packet = 3928
Flit latency average = 18.668
	minimum = 7
	maximum = 59
Slowest flit = 31431
Fragmentation average = 4.94595
	minimum = 0
	maximum = 35
Injected packet rate average = 0.0487778
	minimum = 0.033 (at node 5)
	maximum = 0.059 (at node 4)
Accepted packet rate average = 0.0493333
	minimum = 0.043 (at node 1)
	maximum = 0.064 (at node 3)
Injected flit rate average = 0.390444
	minimum = 0.269 (at node 5)
	maximum = 0.477 (at node 4)
Accepted flit rate average= 0.393556
	minimum = 0.344 (at node 1)
	maximum = 0.509 (at node 3)
Injected packet length average = 8.00456
Accepted packet length average = 7.97748
Total in-flight flits = 42 (0 measured)
latency change    = 0.012346
throughput change = 0.049266
Class 0:
Packet latency average = 30.4562
	minimum = 14
	maximum = 79
Network latency average = 28.3584
	minimum = 14
	maximum = 71
Slowest packet = 4216
Flit latency average = 18.818
	minimum = 7
	maximum = 64
Slowest flit = 33735
Fragmentation average = 4.92491
	minimum = 0
	maximum = 39
Injected packet rate average = 0.0489444
	minimum = 0.044 (at node 6)
	maximum = 0.053 (at node 4)
Accepted packet rate average = 0.0488333
	minimum = 0.04 (at node 1)
	maximum = 0.0575 (at node 3)
Injected flit rate average = 0.390833
	minimum = 0.3495 (at node 6)
	maximum = 0.4265 (at node 4)
Accepted flit rate average= 0.391
	minimum = 0.32 (at node 1)
	maximum = 0.4615 (at node 3)
Injected packet length average = 7.98524
Accepted packet length average = 8.00683
Total in-flight flits = 82 (0 measured)
latency change    = 0.00773174
throughput change = 0.00653595
Too many sample periods needed to converge
Simulation unstable, ending ...
Total run time 0.126576
