BEGIN Configuration File: /home/s65oh/booksim2/runfiles/mesh_k7_inj0.05_pkt8.cfg
topology = mesh;
k = 7;
n = 2;
routing_function = dor;
traffic = uniform;
packet_size = 8;
injection_rate = 0.05;
sim_count = 100000;
warmup_periods = 1000;

END Configuration File: /home/s65oh/booksim2/runfiles/mesh_k7_inj0.05_pkt8.cfg
Class 0:
Packet latency average = 70.6388
	minimum = 14
	maximum = 259
Network latency average = 68.5506
	minimum = 14
	maximum = 259
Slowest packet = 1727
Flit latency average = 49.8513
	minimum = 7
	maximum = 253
Slowest flit = 14328
Fragmentation average = 22.4915
	minimum = 0
	maximum = 175
Injected packet rate average = 0.0500612
	minimum = 0.038 (at node 3)
	maximum = 0.061 (at node 37)
Accepted packet rate average = 0.0455918
	minimum = 0.03 (at node 4)
	maximum = 0.061 (at node 2)
Injected flit rate average = 0.39898
	minimum = 0.304 (at node 3)
	maximum = 0.487 (at node 37)
Accepted flit rate average= 0.37149
	minimum = 0.24 (at node 4)
	maximum = 0.496 (at node 2)
Injected packet length average = 7.96983
Accepted packet length average = 8.14816
Total in-flight flits = 1421 (0 measured)
latency change    = 1
throughput change = 1
Class 0:
Packet latency average = 73.1033
	minimum = 14
	maximum = 415
Network latency average = 70.9065
	minimum = 14
	maximum = 415
Slowest packet = 1962
Flit latency average = 51.5206
	minimum = 7
	maximum = 408
Slowest flit = 15703
Fragmentation average = 23.6935
	minimum = 0
	maximum = 254
Injected packet rate average = 0.0491837
	minimum = 0.039 (at node 36)
	maximum = 0.0615 (at node 37)
Accepted packet rate average = 0.0472347
	minimum = 0.0355 (at node 4)
	maximum = 0.0615 (at node 24)
Injected flit rate average = 0.392337
	minimum = 0.312 (at node 36)
	maximum = 0.49 (at node 37)
Accepted flit rate average= 0.381061
	minimum = 0.286 (at node 4)
	maximum = 0.4965 (at node 24)
Injected packet length average = 7.97697
Accepted packet length average = 8.0674
Total in-flight flits = 1216 (0 measured)
latency change    = 0.0337126
throughput change = 0.0251178
Class 0:
Packet latency average = 75.1587
	minimum = 14
	maximum = 337
Network latency average = 72.749
	minimum = 14
	maximum = 336
Slowest packet = 5292
Flit latency average = 52.9957
	minimum = 7
	maximum = 329
Slowest flit = 42343
Fragmentation average = 25.1934
	minimum = 0
	maximum = 232
Injected packet rate average = 0.0507551
	minimum = 0.038 (at node 17)
	maximum = 0.069 (at node 41)
Accepted packet rate average = 0.0510612
	minimum = 0.039 (at node 5)
	maximum = 0.071 (at node 18)
Injected flit rate average = 0.407122
	minimum = 0.304 (at node 17)
	maximum = 0.553 (at node 41)
Accepted flit rate average= 0.409551
	minimum = 0.322 (at node 5)
	maximum = 0.568 (at node 18)
Injected packet length average = 8.02131
Accepted packet length average = 8.02078
Total in-flight flits = 1044 (0 measured)
latency change    = 0.0273476
throughput change = 0.0695635
Class 0:
Packet latency average = 76.1996
	minimum = 14
	maximum = 410
Network latency average = 73.9162
	minimum = 14
	maximum = 410
Slowest packet = 7557
Flit latency average = 53.6649
	minimum = 7
	maximum = 403
Slowest flit = 60463
Fragmentation average = 25.7238
	minimum = 0
	maximum = 232
Injected packet rate average = 0.0501224
	minimum = 0.0395 (at node 35)
	maximum = 0.063 (at node 30)
Accepted packet rate average = 0.0499082
	minimum = 0.041 (at node 28)
	maximum = 0.063 (at node 20)
Injected flit rate average = 0.401602
	minimum = 0.316 (at node 35)
	maximum = 0.503 (at node 30)
Accepted flit rate average= 0.400194
	minimum = 0.3365 (at node 21)
	maximum = 0.499 (at node 20)
Injected packet length average = 8.01242
Accepted packet length average = 8.01861
Total in-flight flits = 1293 (0 measured)
latency change    = 0.0136599
throughput change = 0.0233815
Class 0:
Packet latency average = 90.6034
	minimum = 14
	maximum = 430
Network latency average = 88.1624
	minimum = 14
	maximum = 430
Slowest packet = 10120
Flit latency average = 63.7718
	minimum = 7
	maximum = 423
Slowest flit = 80967
Fragmentation average = 33.8531
	minimum = 0
	maximum = 262
Injected packet rate average = 0.0516939
	minimum = 0.037 (at node 26)
	maximum = 0.068 (at node 48)
Accepted packet rate average = 0.0523878
	minimum = 0.038 (at node 45)
	maximum = 0.075 (at node 14)
Injected flit rate average = 0.41349
	minimum = 0.296 (at node 26)
	maximum = 0.538 (at node 48)
Accepted flit rate average= 0.418245
	minimum = 0.293 (at node 7)
	maximum = 0.587 (at node 14)
Injected packet length average = 7.99882
Accepted packet length average = 7.98364
Total in-flight flits = 1063 (0 measured)
latency change    = 0.158977
throughput change = 0.043159
Class 0:
Packet latency average = 85.1006
	minimum = 14
	maximum = 517
Network latency average = 82.6966
	minimum = 14
	maximum = 517
Slowest packet = 13215
Flit latency average = 60.1242
	minimum = 7
	maximum = 510
Slowest flit = 105727
Fragmentation average = 30.452
	minimum = 0
	maximum = 283
Injected packet rate average = 0.0505918
	minimum = 0.036 (at node 26)
	maximum = 0.066 (at node 48)
Accepted packet rate average = 0.0506122
	minimum = 0.0395 (at node 25)
	maximum = 0.065 (at node 28)
Injected flit rate average = 0.404653
	minimum = 0.2855 (at node 26)
	maximum = 0.5285 (at node 48)
Accepted flit rate average= 0.404541
	minimum = 0.3255 (at node 25)
	maximum = 0.52 (at node 28)
Injected packet length average = 7.99839
Accepted packet length average = 7.99294
Total in-flight flits = 1312 (0 measured)
latency change    = 0.0646626
throughput change = 0.0338756
Class 0:
Packet latency average = 86.1126
	minimum = 14
	maximum = 451
Network latency average = 83.4648
	minimum = 14
	maximum = 447
Slowest packet = 14227
Flit latency average = 60.6836
	minimum = 7
	maximum = 440
Slowest flit = 113823
Fragmentation average = 30.2289
	minimum = 0
	maximum = 276
Injected packet rate average = 0.0511837
	minimum = 0.038 (at node 5)
	maximum = 0.065 (at node 22)
Accepted packet rate average = 0.0516327
	minimum = 0.037 (at node 19)
	maximum = 0.067 (at node 47)
Injected flit rate average = 0.409306
	minimum = 0.307 (at node 5)
	maximum = 0.524 (at node 22)
Accepted flit rate average= 0.412796
	minimum = 0.296 (at node 19)
	maximum = 0.524 (at node 47)
Injected packet length average = 7.99681
Accepted packet length average = 7.99486
Total in-flight flits = 1149 (0 measured)
latency change    = 0.0117526
throughput change = 0.019998
Class 0:
Packet latency average = 82.6101
	minimum = 14
	maximum = 480
Network latency average = 80.1656
	minimum = 14
	maximum = 474
Slowest packet = 17696
Flit latency average = 58.1375
	minimum = 7
	maximum = 467
Slowest flit = 141575
Fragmentation average = 28.9642
	minimum = 0
	maximum = 299
Injected packet rate average = 0.0506939
	minimum = 0.041 (at node 11)
	maximum = 0.062 (at node 48)
Accepted packet rate average = 0.0507143
	minimum = 0.0385 (at node 19)
	maximum = 0.0615 (at node 29)
Injected flit rate average = 0.40549
	minimum = 0.328 (at node 11)
	maximum = 0.496 (at node 48)
Accepted flit rate average= 0.405643
	minimum = 0.31 (at node 19)
	maximum = 0.493 (at node 29)
Injected packet length average = 7.99879
Accepted packet length average = 7.99859
Total in-flight flits = 1303 (0 measured)
latency change    = 0.042399
throughput change = 0.0176339
Class 0:
Packet latency average = 76.0307
	minimum = 14
	maximum = 482
Network latency average = 73.4282
	minimum = 14
	maximum = 482
Slowest packet = 18954
Flit latency average = 53.192
	minimum = 7
	maximum = 475
Slowest flit = 151639
Fragmentation average = 25.2689
	minimum = 0
	maximum = 217
Injected packet rate average = 0.0482653
	minimum = 0.035 (at node 0)
	maximum = 0.068 (at node 31)
Accepted packet rate average = 0.0491837
	minimum = 0.034 (at node 35)
	maximum = 0.063 (at node 16)
Injected flit rate average = 0.38649
	minimum = 0.28 (at node 0)
	maximum = 0.544 (at node 31)
Accepted flit rate average= 0.392551
	minimum = 0.29 (at node 11)
	maximum = 0.505 (at node 16)
Injected packet length average = 8.00761
Accepted packet length average = 7.98133
Total in-flight flits = 988 (0 measured)
latency change    = 0.0865355
throughput change = 0.0333507
Class 0:
Packet latency average = 75.2738
	minimum = 14
	maximum = 482
Network latency average = 72.935
	minimum = 14
	maximum = 482
Slowest packet = 18954
Flit latency average = 52.7537
	minimum = 7
	maximum = 475
Slowest flit = 151639
Fragmentation average = 25.2418
	minimum = 0
	maximum = 217
Injected packet rate average = 0.0486633
	minimum = 0.0375 (at node 0)
	maximum = 0.0655 (at node 31)
Accepted packet rate average = 0.0491633
	minimum = 0.0395 (at node 43)
	maximum = 0.0585 (at node 15)
Injected flit rate average = 0.389143
	minimum = 0.3 (at node 0)
	maximum = 0.524 (at node 31)
Accepted flit rate average= 0.392663
	minimum = 0.316 (at node 43)
	maximum = 0.4685 (at node 15)
Injected packet length average = 7.99664
Accepted packet length average = 7.98692
Total in-flight flits = 974 (0 measured)
latency change    = 0.0100558
throughput change = 0.000285855
Too many sample periods needed to converge
Simulation unstable, ending ...
Total run time 1.44782
