BEGIN Configuration File: /home/s65oh/booksim2/runfiles/mesh_k6_inj0.15_pkt4.cfg
topology = mesh;
k = 6;
n = 2;
routing_function = dor;
traffic = uniform;
packet_size = 4;
injection_rate = 0.15;
sim_count = 100000;
warmup_periods = 1000;

END Configuration File: /home/s65oh/booksim2/runfiles/mesh_k6_inj0.15_pkt4.cfg
Class 0:
Packet latency average = 82.5508
	minimum = 10
	maximum = 588
Network latency average = 80.5444
	minimum = 10
	maximum = 588
Slowest packet = 1825
Flit latency average = 67.7651
	minimum = 7
	maximum = 585
Slowest flit = 7303
Fragmentation average = 20.0116
	minimum = 0
	maximum = 223
Injected packet rate average = 0.145889
	minimum = 0.128 (at node 16)
	maximum = 0.168 (at node 10)
Accepted packet rate average = 0.129
	minimum = 0.112 (at node 13)
	maximum = 0.156 (at node 25)
Injected flit rate average = 0.582222
	minimum = 0.512 (at node 16)
	maximum = 0.67 (at node 10)
Accepted flit rate average= 0.524056
	minimum = 0.454 (at node 13)
	maximum = 0.633 (at node 7)
Injected packet length average = 3.99086
Accepted packet length average = 4.06245
Total in-flight flits = 2142 (0 measured)
latency change    = 1
throughput change = 1
Class 0:
Packet latency average = 115.672
	minimum = 10
	maximum = 777
Network latency average = 113.375
	minimum = 10
	maximum = 777
Slowest packet = 6096
Flit latency average = 98.193
	minimum = 7
	maximum = 774
Slowest flit = 24387
Fragmentation average = 25.3807
	minimum = 0
	maximum = 237
Injected packet rate average = 0.147306
	minimum = 0.132 (at node 16)
	maximum = 0.1685 (at node 20)
Accepted packet rate average = 0.134
	minimum = 0.1155 (at node 13)
	maximum = 0.153 (at node 25)
Injected flit rate average = 0.588722
	minimum = 0.528 (at node 16)
	maximum = 0.674 (at node 20)
Accepted flit rate average= 0.540819
	minimum = 0.4675 (at node 13)
	maximum = 0.6215 (at node 25)
Injected packet length average = 3.99661
Accepted packet length average = 4.03597
Total in-flight flits = 3485 (0 measured)
latency change    = 0.286339
throughput change = 0.0309972
Class 0:
Packet latency average = 206.08
	minimum = 11
	maximum = 1003
Network latency average = 197.956
	minimum = 10
	maximum = 997
Slowest packet = 10290
Flit latency average = 179.01
	minimum = 7
	maximum = 994
Slowest flit = 41163
Fragmentation average = 33.2684
	minimum = 0
	maximum = 268
Injected packet rate average = 0.148333
	minimum = 0.122 (at node 20)
	maximum = 0.172 (at node 34)
Accepted packet rate average = 0.140444
	minimum = 0.122 (at node 28)
	maximum = 0.169 (at node 25)
Injected flit rate average = 0.593389
	minimum = 0.485 (at node 20)
	maximum = 0.688 (at node 34)
Accepted flit rate average= 0.562389
	minimum = 0.48 (at node 28)
	maximum = 0.66 (at node 25)
Injected packet length average = 4.00037
Accepted packet length average = 4.00435
Total in-flight flits = 4599 (0 measured)
latency change    = 0.438701
throughput change = 0.0383533
Class 0:
Packet latency average = 241.092
	minimum = 11
	maximum = 1121
Network latency average = 222.309
	minimum = 10
	maximum = 1119
Slowest packet = 14263
Flit latency average = 202.674
	minimum = 7
	maximum = 1116
Slowest flit = 57055
Fragmentation average = 33.5102
	minimum = 0
	maximum = 292
Injected packet rate average = 0.146125
	minimum = 0.1235 (at node 20)
	maximum = 0.1615 (at node 12)
Accepted packet rate average = 0.140583
	minimum = 0.1305 (at node 17)
	maximum = 0.158 (at node 33)
Injected flit rate average = 0.584583
	minimum = 0.494 (at node 20)
	maximum = 0.646 (at node 12)
Accepted flit rate average= 0.562611
	minimum = 0.5205 (at node 17)
	maximum = 0.633 (at node 33)
Injected packet length average = 4.00057
Accepted packet length average = 4.00198
Total in-flight flits = 5061 (0 measured)
latency change    = 0.145221
throughput change = 0.000394984
Class 0:
Packet latency average = 334.139
	minimum = 11
	maximum = 1249
Network latency average = 269.701
	minimum = 11
	maximum = 1212
Slowest packet = 15835
Flit latency average = 249.847
	minimum = 7
	maximum = 1209
Slowest flit = 63343
Fragmentation average = 32.816
	minimum = 0
	maximum = 233
Injected packet rate average = 0.142389
	minimum = 0.108 (at node 13)
	maximum = 0.164 (at node 9)
Accepted packet rate average = 0.140222
	minimum = 0.118 (at node 4)
	maximum = 0.163 (at node 10)
Injected flit rate average = 0.568917
	minimum = 0.432 (at node 13)
	maximum = 0.653 (at node 9)
Accepted flit rate average= 0.560028
	minimum = 0.463 (at node 4)
	maximum = 0.649 (at node 10)
Injected packet length average = 3.99551
Accepted packet length average = 3.99386
Total in-flight flits = 5404 (0 measured)
latency change    = 0.278469
throughput change = 0.00461287
Class 0:
Packet latency average = 358.687
	minimum = 11
	maximum = 1660
Network latency average = 279.177
	minimum = 10
	maximum = 1394
Slowest packet = 15835
Flit latency average = 259.083
	minimum = 7
	maximum = 1391
Slowest flit = 95367
Fragmentation average = 32.7072
	minimum = 0
	maximum = 315
Injected packet rate average = 0.142153
	minimum = 0.1185 (at node 16)
	maximum = 0.162 (at node 20)
Accepted packet rate average = 0.140236
	minimum = 0.1285 (at node 31)
	maximum = 0.1575 (at node 10)
Injected flit rate average = 0.568514
	minimum = 0.4735 (at node 16)
	maximum = 0.648 (at node 20)
Accepted flit rate average= 0.560458
	minimum = 0.5135 (at node 31)
	maximum = 0.6345 (at node 10)
Injected packet length average = 3.99932
Accepted packet length average = 3.99653
Total in-flight flits = 5648 (0 measured)
latency change    = 0.0684371
throughput change = 0.00076822
Class 0:
Packet latency average = 468.214
	minimum = 10
	maximum = 1910
Network latency average = 307.215
	minimum = 10
	maximum = 1557
Slowest packet = 25873
Flit latency average = 287.624
	minimum = 7
	maximum = 1554
Slowest flit = 112347
Fragmentation average = 32.8133
	minimum = 0
	maximum = 296
Injected packet rate average = 0.14025
	minimum = 0.102 (at node 10)
	maximum = 0.177 (at node 18)
Accepted packet rate average = 0.137639
	minimum = 0.11 (at node 14)
	maximum = 0.162 (at node 18)
Injected flit rate average = 0.560583
	minimum = 0.406 (at node 10)
	maximum = 0.707 (at node 18)
Accepted flit rate average= 0.550583
	minimum = 0.449 (at node 14)
	maximum = 0.654 (at node 18)
Injected packet length average = 3.99703
Accepted packet length average = 4.0002
Total in-flight flits = 6023 (0 measured)
latency change    = 0.233927
throughput change = 0.0179355
Class 0:
Packet latency average = 501.799
	minimum = 10
	maximum = 1910
Network latency average = 311.769
	minimum = 10
	maximum = 1557
Slowest packet = 25873
Flit latency average = 291.72
	minimum = 7
	maximum = 1554
Slowest flit = 112347
Fragmentation average = 33.1506
	minimum = 0
	maximum = 324
Injected packet rate average = 0.139542
	minimum = 0.109 (at node 19)
	maximum = 0.1655 (at node 18)
Accepted packet rate average = 0.138417
	minimum = 0.1185 (at node 6)
	maximum = 0.154 (at node 18)
Injected flit rate average = 0.558028
	minimum = 0.4345 (at node 19)
	maximum = 0.661 (at node 18)
Accepted flit rate average= 0.554194
	minimum = 0.475 (at node 6)
	maximum = 0.619 (at node 18)
Injected packet length average = 3.999
Accepted packet length average = 4.00381
Total in-flight flits = 5934 (0 measured)
latency change    = 0.0669293
throughput change = 0.00651596
Average latency for class 0 exceeded 500 cycles. Aborting simulation.
Too many sample periods needed to converge
Simulation unstable, ending ...
Total run time 1.51559
