BEGIN Configuration File: /home/s65oh/booksim2/runfiles/mesh_k7_inj0.05_pkt4.cfg
topology = mesh;
k = 7;
n = 2;
routing_function = dor;
traffic = uniform;
packet_size = 4;
injection_rate = 0.05;
sim_count = 100000;
warmup_periods = 1000;

END Configuration File: /home/s65oh/booksim2/runfiles/mesh_k7_inj0.05_pkt4.cfg
Class 0:
Packet latency average = 35.994
	minimum = 10
	maximum = 79
Network latency average = 35.6003
	minimum = 10
	maximum = 79
Slowest packet = 672
Flit latency average = 31.6171
	minimum = 7
	maximum = 76
Slowest flit = 2691
Fragmentation average = 1.90932
	minimum = 0
	maximum = 24
Injected packet rate average = 0.0501837
	minimum = 0.035 (at node 30)
	maximum = 0.07 (at node 12)
Accepted packet rate average = 0.0479388
	minimum = 0.031 (at node 4)
	maximum = 0.065 (at node 38)
Injected flit rate average = 0.200388
	minimum = 0.14 (at node 30)
	maximum = 0.28 (at node 12)
Accepted flit rate average= 0.192633
	minimum = 0.124 (at node 4)
	maximum = 0.26 (at node 38)
Injected packet length average = 3.99309
Accepted packet length average = 4.01831
Total in-flight flits = 397 (0 measured)
latency change    = 1
throughput change = 1
Class 0:
Packet latency average = 35.5386
	minimum = 10
	maximum = 79
Network latency average = 35.1475
	minimum = 10
	maximum = 79
Slowest packet = 672
Flit latency average = 31.1907
	minimum = 7
	maximum = 76
Slowest flit = 2691
Fragmentation average = 1.84197
	minimum = 0
	maximum = 25
Injected packet rate average = 0.0492551
	minimum = 0.037 (at node 7)
	maximum = 0.063 (at node 8)
Accepted packet rate average = 0.0482347
	minimum = 0.0365 (at node 4)
	maximum = 0.0625 (at node 24)
Injected flit rate average = 0.196857
	minimum = 0.148 (at node 7)
	maximum = 0.252 (at node 8)
Accepted flit rate average= 0.193235
	minimum = 0.146 (at node 4)
	maximum = 0.25 (at node 24)
Injected packet length average = 3.99669
Accepted packet length average = 4.00613
Total in-flight flits = 371 (0 measured)
latency change    = 0.0128151
throughput change = 0.00311559
Class 0:
Packet latency average = 35.5921
	minimum = 10
	maximum = 90
Network latency average = 35.1886
	minimum = 10
	maximum = 89
Slowest packet = 7091
Flit latency average = 31.1304
	minimum = 7
	maximum = 86
Slowest flit = 28367
Fragmentation average = 2.006
	minimum = 0
	maximum = 30
Injected packet rate average = 0.0506939
	minimum = 0.036 (at node 1)
	maximum = 0.068 (at node 22)
Accepted packet rate average = 0.0509796
	minimum = 0.04 (at node 16)
	maximum = 0.071 (at node 18)
Injected flit rate average = 0.202776
	minimum = 0.142 (at node 1)
	maximum = 0.272 (at node 22)
Accepted flit rate average= 0.203959
	minimum = 0.16 (at node 16)
	maximum = 0.287 (at node 18)
Injected packet length average = 4
Accepted packet length average = 4.0008
Total in-flight flits = 313 (0 measured)
latency change    = 0.00150218
throughput change = 0.0525815
Class 0:
Packet latency average = 35.4674
	minimum = 10
	maximum = 90
Network latency average = 35.0803
	minimum = 10
	maximum = 89
Slowest packet = 7091
Flit latency average = 31.0894
	minimum = 7
	maximum = 86
Slowest flit = 28367
Fragmentation average = 1.87454
	minimum = 0
	maximum = 30
Injected packet rate average = 0.050102
	minimum = 0.038 (at node 13)
	maximum = 0.064 (at node 41)
Accepted packet rate average = 0.0503469
	minimum = 0.042 (at node 37)
	maximum = 0.062 (at node 34)
Injected flit rate average = 0.200469
	minimum = 0.152 (at node 13)
	maximum = 0.256 (at node 41)
Accepted flit rate average= 0.201276
	minimum = 0.168 (at node 37)
	maximum = 0.2485 (at node 34)
Injected packet length average = 4.00122
Accepted packet length average = 3.99777
Total in-flight flits = 286 (0 measured)
latency change    = 0.00351603
throughput change = 0.0133333
Class 0:
Packet latency average = 36.2158
	minimum = 10
	maximum = 87
Network latency average = 35.8107
	minimum = 10
	maximum = 87
Slowest packet = 9765
Flit latency average = 31.7725
	minimum = 7
	maximum = 84
Slowest flit = 39063
Fragmentation average = 1.97747
	minimum = 0
	maximum = 25
Injected packet rate average = 0.0516939
	minimum = 0.041 (at node 0)
	maximum = 0.066 (at node 45)
Accepted packet rate average = 0.0516327
	minimum = 0.033 (at node 7)
	maximum = 0.068 (at node 14)
Injected flit rate average = 0.206592
	minimum = 0.164 (at node 0)
	maximum = 0.264 (at node 45)
Accepted flit rate average= 0.206653
	minimum = 0.132 (at node 7)
	maximum = 0.272 (at node 14)
Injected packet length average = 3.99645
Accepted packet length average = 4.00237
Total in-flight flits = 292 (0 measured)
latency change    = 0.0206661
throughput change = 0.0260221
Class 0:
Packet latency average = 36.2107
	minimum = 10
	maximum = 87
Network latency average = 35.8313
	minimum = 10
	maximum = 87
Slowest packet = 9765
Flit latency average = 31.8227
	minimum = 7
	maximum = 84
Slowest flit = 39063
Fragmentation average = 1.92154
	minimum = 0
	maximum = 26
Injected packet rate average = 0.0505714
	minimum = 0.041 (at node 0)
	maximum = 0.067 (at node 45)
Accepted packet rate average = 0.0504592
	minimum = 0.042 (at node 20)
	maximum = 0.0655 (at node 28)
Injected flit rate average = 0.202306
	minimum = 0.164 (at node 0)
	maximum = 0.2665 (at node 45)
Accepted flit rate average= 0.201888
	minimum = 0.168 (at node 20)
	maximum = 0.262 (at node 28)
Injected packet length average = 4.0004
Accepted packet length average = 4.00101
Total in-flight flits = 325 (0 measured)
latency change    = 0.000140632
throughput change = 0.0236037
Class 0:
Packet latency average = 35.9429
	minimum = 10
	maximum = 82
Network latency average = 35.5184
	minimum = 10
	maximum = 82
Slowest packet = 15372
Flit latency average = 31.4653
	minimum = 7
	maximum = 79
Slowest flit = 61491
Fragmentation average = 2.00359
	minimum = 0
	maximum = 25
Injected packet rate average = 0.0512857
	minimum = 0.037 (at node 38)
	maximum = 0.067 (at node 32)
Accepted packet rate average = 0.0511429
	minimum = 0.035 (at node 18)
	maximum = 0.068 (at node 17)
Injected flit rate average = 0.20498
	minimum = 0.148 (at node 38)
	maximum = 0.268 (at node 32)
Accepted flit rate average= 0.204612
	minimum = 0.143 (at node 18)
	maximum = 0.272 (at node 17)
Injected packet length average = 3.99682
Accepted packet length average = 4.0008
Total in-flight flits = 351 (0 measured)
latency change    = 0.00745017
throughput change = 0.0133154
Class 0:
Packet latency average = 35.9035
	minimum = 10
	maximum = 95
Network latency average = 35.4966
	minimum = 10
	maximum = 95
Slowest packet = 17064
Flit latency average = 31.4346
	minimum = 7
	maximum = 92
Slowest flit = 68259
Fragmentation average = 2.01854
	minimum = 0
	maximum = 52
Injected packet rate average = 0.0507857
	minimum = 0.041 (at node 38)
	maximum = 0.06 (at node 8)
Accepted packet rate average = 0.0506327
	minimum = 0.0385 (at node 19)
	maximum = 0.061 (at node 29)
Injected flit rate average = 0.20301
	minimum = 0.164 (at node 38)
	maximum = 0.24 (at node 8)
Accepted flit rate average= 0.202643
	minimum = 0.1545 (at node 19)
	maximum = 0.244 (at node 29)
Injected packet length average = 3.99739
Accepted packet length average = 4.00222
Total in-flight flits = 374 (0 measured)
latency change    = 0.00109935
throughput change = 0.00971852
Class 0:
Packet latency average = 35.798
	minimum = 10
	maximum = 89
Network latency average = 35.4582
	minimum = 10
	maximum = 87
Slowest packet = 20070
Flit latency average = 31.5166
	minimum = 7
	maximum = 84
Slowest flit = 80283
Fragmentation average = 1.80008
	minimum = 0
	maximum = 27
Injected packet rate average = 0.0482449
	minimum = 0.036 (at node 35)
	maximum = 0.063 (at node 1)
Accepted packet rate average = 0.0482857
	minimum = 0.031 (at node 11)
	maximum = 0.062 (at node 16)
Injected flit rate average = 0.193
	minimum = 0.144 (at node 35)
	maximum = 0.25 (at node 1)
Accepted flit rate average= 0.193265
	minimum = 0.125 (at node 11)
	maximum = 0.248 (at node 16)
Injected packet length average = 4.00042
Accepted packet length average = 4.00254
Total in-flight flits = 360 (0 measured)
latency change    = 0.00294696
throughput change = 0.0485216
Class 0:
Packet latency average = 35.5713
	minimum = 10
	maximum = 89
Network latency average = 35.2306
	minimum = 10
	maximum = 87
Slowest packet = 20070
Flit latency average = 31.2923
	minimum = 7
	maximum = 84
Slowest flit = 80283
Fragmentation average = 1.78692
	minimum = 0
	maximum = 27
Injected packet rate average = 0.0485714
	minimum = 0.0405 (at node 29)
	maximum = 0.062 (at node 1)
Accepted packet rate average = 0.0488469
	minimum = 0.039 (at node 43)
	maximum = 0.0585 (at node 15)
Injected flit rate average = 0.194347
	minimum = 0.162 (at node 32)
	maximum = 0.248 (at node 1)
Accepted flit rate average= 0.195245
	minimum = 0.156 (at node 43)
	maximum = 0.234 (at node 15)
Injected packet length average = 4.00126
Accepted packet length average = 3.99708
Total in-flight flits = 280 (0 measured)
latency change    = 0.0063712
throughput change = 0.010139
Too many sample periods needed to converge
Simulation unstable, ending ...
Total run time 2.87363
