BEGIN Configuration File: /home/s65oh/booksim2/runfiles/mesh_k3_inj0.15_pkt4.cfg
topology = mesh;
k = 3;
n = 2;
routing_function = dor;
traffic = uniform;
packet_size = 4;
injection_rate = 0.15;
sim_count = 100000;
warmup_periods = 1000;

END Configuration File: /home/s65oh/booksim2/runfiles/mesh_k3_inj0.15_pkt4.cfg
Class 0:
Packet latency average = 25.9414
	minimum = 10
	maximum = 59
Network latency average = 24.09
	minimum = 10
	maximum = 54
Slowest packet = 566
Flit latency average = 18.9542
	minimum = 7
	maximum = 51
Slowest flit = 3011
Fragmentation average = 4.21606
	minimum = 0
	maximum = 33
Injected packet rate average = 0.142889
	minimum = 0.127 (at node 6)
	maximum = 0.15 (at node 5)
Accepted packet rate average = 0.138333
	minimum = 0.132 (at node 1)
	maximum = 0.149 (at node 7)
Injected flit rate average = 0.571111
	minimum = 0.508 (at node 6)
	maximum = 0.6 (at node 5)
Accepted flit rate average= 0.556111
	minimum = 0.528 (at node 1)
	maximum = 0.602 (at node 7)
Injected packet length average = 3.99689
Accepted packet length average = 4.02008
Total in-flight flits = 139 (0 measured)
latency change    = 1
throughput change = 1
Class 0:
Packet latency average = 26.3793
	minimum = 10
	maximum = 87
Network latency average = 24.4181
	minimum = 10
	maximum = 74
Slowest packet = 1223
Flit latency average = 19.2221
	minimum = 7
	maximum = 71
Slowest flit = 8251
Fragmentation average = 4.37888
	minimum = 0
	maximum = 40
Injected packet rate average = 0.145167
	minimum = 0.136 (at node 6)
	maximum = 0.1525 (at node 1)
Accepted packet rate average = 0.143111
	minimum = 0.133 (at node 3)
	maximum = 0.155 (at node 2)
Injected flit rate average = 0.580111
	minimum = 0.544 (at node 6)
	maximum = 0.6085 (at node 1)
Accepted flit rate average= 0.574
	minimum = 0.533 (at node 3)
	maximum = 0.62 (at node 2)
Injected packet length average = 3.99617
Accepted packet length average = 4.01087
Total in-flight flits = 120 (0 measured)
latency change    = 0.0166003
throughput change = 0.0311653
Class 0:
Packet latency average = 27.9079
	minimum = 10
	maximum = 94
Network latency average = 25.6861
	minimum = 10
	maximum = 90
Slowest packet = 3691
Flit latency average = 20.0996
	minimum = 7
	maximum = 87
Slowest flit = 14767
Fragmentation average = 5.09363
	minimum = 0
	maximum = 43
Injected packet rate average = 0.148
	minimum = 0.137 (at node 1)
	maximum = 0.161 (at node 6)
Accepted packet rate average = 0.148333
	minimum = 0.136 (at node 2)
	maximum = 0.17 (at node 7)
Injected flit rate average = 0.592444
	minimum = 0.551 (at node 1)
	maximum = 0.644 (at node 6)
Accepted flit rate average= 0.592111
	minimum = 0.544 (at node 2)
	maximum = 0.676 (at node 7)
Injected packet length average = 4.003
Accepted packet length average = 3.99176
Total in-flight flits = 119 (0 measured)
latency change    = 0.0547729
throughput change = 0.0305874
Class 0:
Packet latency average = 27.2891
	minimum = 10
	maximum = 94
Network latency average = 25.2171
	minimum = 10
	maximum = 90
Slowest packet = 3691
Flit latency average = 19.8169
	minimum = 7
	maximum = 87
Slowest flit = 14767
Fragmentation average = 4.79083
	minimum = 0
	maximum = 43
Injected packet rate average = 0.147056
	minimum = 0.13 (at node 1)
	maximum = 0.159 (at node 6)
Accepted packet rate average = 0.146611
	minimum = 0.1335 (at node 2)
	maximum = 0.1655 (at node 7)
Injected flit rate average = 0.588056
	minimum = 0.5215 (at node 1)
	maximum = 0.636 (at node 6)
Accepted flit rate average= 0.586556
	minimum = 0.534 (at node 2)
	maximum = 0.66 (at node 7)
Injected packet length average = 3.99887
Accepted packet length average = 4.00076
Total in-flight flits = 150 (0 measured)
latency change    = 0.0226735
throughput change = 0.00947149
Class 0:
Packet latency average = 27.0338
	minimum = 10
	maximum = 71
Network latency average = 25.0782
	minimum = 10
	maximum = 71
Slowest packet = 5531
Flit latency average = 19.6918
	minimum = 7
	maximum = 68
Slowest flit = 22127
Fragmentation average = 4.7218
	minimum = 0
	maximum = 27
Injected packet rate average = 0.146111
	minimum = 0.132 (at node 7)
	maximum = 0.171 (at node 1)
Accepted packet rate average = 0.147778
	minimum = 0.132 (at node 0)
	maximum = 0.161 (at node 2)
Injected flit rate average = 0.584556
	minimum = 0.529 (at node 7)
	maximum = 0.683 (at node 1)
Accepted flit rate average= 0.589778
	minimum = 0.53 (at node 0)
	maximum = 0.646 (at node 2)
Injected packet length average = 4.00076
Accepted packet length average = 3.99098
Total in-flight flits = 102 (0 measured)
latency change    = 0.00944335
throughput change = 0.00546345
Class 0:
Packet latency average = 29.2477
	minimum = 10
	maximum = 137
Network latency average = 26.86
	minimum = 10
	maximum = 112
Slowest packet = 6976
Flit latency average = 21.0884
	minimum = 7
	maximum = 109
Slowest flit = 28143
Fragmentation average = 5.55329
	minimum = 0
	maximum = 92
Injected packet rate average = 0.149222
	minimum = 0.133 (at node 6)
	maximum = 0.1675 (at node 1)
Accepted packet rate average = 0.149611
	minimum = 0.1385 (at node 0)
	maximum = 0.163 (at node 3)
Injected flit rate average = 0.596778
	minimum = 0.5315 (at node 6)
	maximum = 0.669 (at node 1)
Accepted flit rate average= 0.598
	minimum = 0.5575 (at node 0)
	maximum = 0.6515 (at node 3)
Injected packet length average = 3.99926
Accepted packet length average = 3.99703
Total in-flight flits = 130 (0 measured)
latency change    = 0.075693
throughput change = 0.0137495
Class 0:
Packet latency average = 27.6637
	minimum = 10
	maximum = 93
Network latency average = 25.6445
	minimum = 10
	maximum = 89
Slowest packet = 8479
Flit latency average = 20.098
	minimum = 7
	maximum = 86
Slowest flit = 33919
Fragmentation average = 5.08997
	minimum = 0
	maximum = 54
Injected packet rate average = 0.151333
	minimum = 0.142 (at node 6)
	maximum = 0.166 (at node 8)
Accepted packet rate average = 0.150667
	minimum = 0.135 (at node 8)
	maximum = 0.162 (at node 0)
Injected flit rate average = 0.606
	minimum = 0.569 (at node 6)
	maximum = 0.667 (at node 8)
Accepted flit rate average= 0.604333
	minimum = 0.541 (at node 8)
	maximum = 0.646 (at node 3)
Injected packet length average = 4.00441
Accepted packet length average = 4.01106
Total in-flight flits = 139 (0 measured)
latency change    = 0.0572578
throughput change = 0.0104799
Class 0:
Packet latency average = 27.9668
	minimum = 10
	maximum = 93
Network latency average = 25.9205
	minimum = 10
	maximum = 89
Slowest packet = 8479
Flit latency average = 20.351
	minimum = 7
	maximum = 86
Slowest flit = 33919
Fragmentation average = 5.12915
	minimum = 0
	maximum = 54
Injected packet rate average = 0.148556
	minimum = 0.1335 (at node 5)
	maximum = 0.1615 (at node 3)
Accepted packet rate average = 0.148833
	minimum = 0.1405 (at node 2)
	maximum = 0.1615 (at node 7)
Injected flit rate average = 0.594611
	minimum = 0.534 (at node 5)
	maximum = 0.647 (at node 3)
Accepted flit rate average= 0.594833
	minimum = 0.561 (at node 2)
	maximum = 0.65 (at node 7)
Injected packet length average = 4.00262
Accepted packet length average = 3.99664
Total in-flight flits = 119 (0 measured)
latency change    = 0.0108365
throughput change = 0.0159709
Class 0:
Packet latency average = 28.3557
	minimum = 10
	maximum = 70
Network latency average = 26.1804
	minimum = 10
	maximum = 70
Slowest packet = 10555
Flit latency average = 20.4777
	minimum = 7
	maximum = 67
Slowest flit = 46931
Fragmentation average = 5.39691
	minimum = 0
	maximum = 38
Injected packet rate average = 0.151
	minimum = 0.132 (at node 4)
	maximum = 0.175 (at node 1)
Accepted packet rate average = 0.150889
	minimum = 0.126 (at node 8)
	maximum = 0.171 (at node 7)
Injected flit rate average = 0.603889
	minimum = 0.529 (at node 4)
	maximum = 0.697 (at node 1)
Accepted flit rate average= 0.605889
	minimum = 0.504 (at node 8)
	maximum = 0.682 (at node 7)
Injected packet length average = 3.99926
Accepted packet length average = 4.01546
Total in-flight flits = 102 (0 measured)
latency change    = 0.0137148
throughput change = 0.0182468
Class 0:
Packet latency average = 28.1173
	minimum = 10
	maximum = 79
Network latency average = 25.7783
	minimum = 10
	maximum = 74
Slowest packet = 12295
Flit latency average = 20.1898
	minimum = 7
	maximum = 71
Slowest flit = 49183
Fragmentation average = 5.22685
	minimum = 0
	maximum = 38
Injected packet rate average = 0.151
	minimum = 0.136 (at node 4)
	maximum = 0.164 (at node 5)
Accepted packet rate average = 0.150611
	minimum = 0.1415 (at node 4)
	maximum = 0.159 (at node 7)
Injected flit rate average = 0.603444
	minimum = 0.544 (at node 4)
	maximum = 0.655 (at node 5)
Accepted flit rate average= 0.603
	minimum = 0.566 (at node 4)
	maximum = 0.6365 (at node 2)
Injected packet length average = 3.99632
Accepted packet length average = 4.00369
Total in-flight flits = 137 (0 measured)
latency change    = 0.00847771
throughput change = 0.00479086
Too many sample periods needed to converge
Simulation unstable, ending ...
Total run time 0.238617
