BEGIN Configuration File: /home/s65oh/booksim2/runfiles/mesh_k4_inj0.15_pkt4.cfg
topology = mesh;
k = 4;
n = 2;
routing_function = dor;
traffic = uniform;
packet_size = 4;
injection_rate = 0.15;
sim_count = 100000;
warmup_periods = 1000;

END Configuration File: /home/s65oh/booksim2/runfiles/mesh_k4_inj0.15_pkt4.cfg
Class 0:
Packet latency average = 35.268
	minimum = 10
	maximum = 120
Network latency average = 33.0954
	minimum = 10
	maximum = 119
Slowest packet = 1467
Flit latency average = 26.5815
	minimum = 7
	maximum = 116
Slowest flit = 7387
Fragmentation average = 6.87259
	minimum = 0
	maximum = 57
Injected packet rate average = 0.146625
	minimum = 0.127 (at node 13)
	maximum = 0.162 (at node 12)
Accepted packet rate average = 0.14275
	minimum = 0.126 (at node 14)
	maximum = 0.156 (at node 8)
Injected flit rate average = 0.586375
	minimum = 0.508 (at node 13)
	maximum = 0.648 (at node 12)
Accepted flit rate average= 0.572875
	minimum = 0.504 (at node 14)
	maximum = 0.624 (at node 8)
Injected packet length average = 3.99915
Accepted packet length average = 4.01313
Total in-flight flits = 218 (0 measured)
latency change    = 1
throughput change = 1
Class 0:
Packet latency average = 34.9671
	minimum = 10
	maximum = 120
Network latency average = 32.9574
	minimum = 10
	maximum = 119
Slowest packet = 1467
Flit latency average = 26.5087
	minimum = 7
	maximum = 116
Slowest flit = 7387
Fragmentation average = 6.77698
	minimum = 0
	maximum = 59
Injected packet rate average = 0.145844
	minimum = 0.13 (at node 13)
	maximum = 0.156 (at node 7)
Accepted packet rate average = 0.143625
	minimum = 0.1285 (at node 4)
	maximum = 0.156 (at node 6)
Injected flit rate average = 0.582688
	minimum = 0.519 (at node 13)
	maximum = 0.624 (at node 7)
Accepted flit rate average= 0.575562
	minimum = 0.5175 (at node 4)
	maximum = 0.626 (at node 6)
Injected packet length average = 3.99529
Accepted packet length average = 4.0074
Total in-flight flits = 250 (0 measured)
latency change    = 0.00860252
throughput change = 0.00466935
Class 0:
Packet latency average = 35.4691
	minimum = 10
	maximum = 120
Network latency average = 33.411
	minimum = 10
	maximum = 115
Slowest packet = 6632
Flit latency average = 26.8414
	minimum = 7
	maximum = 112
Slowest flit = 26531
Fragmentation average = 7.19548
	minimum = 0
	maximum = 64
Injected packet rate average = 0.149125
	minimum = 0.133 (at node 15)
	maximum = 0.169 (at node 1)
Accepted packet rate average = 0.146437
	minimum = 0.127 (at node 6)
	maximum = 0.159 (at node 8)
Injected flit rate average = 0.597
	minimum = 0.535 (at node 15)
	maximum = 0.678 (at node 1)
Accepted flit rate average= 0.589187
	minimum = 0.507 (at node 6)
	maximum = 0.646 (at node 8)
Injected packet length average = 4.00335
Accepted packet length average = 4.02347
Total in-flight flits = 367 (0 measured)
latency change    = 0.0141507
throughput change = 0.0231251
Class 0:
Packet latency average = 37.0516
	minimum = 10
	maximum = 147
Network latency average = 34.6827
	minimum = 10
	maximum = 141
Slowest packet = 7048
Flit latency average = 27.7491
	minimum = 7
	maximum = 138
Slowest flit = 28195
Fragmentation average = 7.78961
	minimum = 0
	maximum = 89
Injected packet rate average = 0.149688
	minimum = 0.1295 (at node 15)
	maximum = 0.1705 (at node 11)
Accepted packet rate average = 0.149125
	minimum = 0.1335 (at node 4)
	maximum = 0.163 (at node 11)
Injected flit rate average = 0.599063
	minimum = 0.518 (at node 15)
	maximum = 0.683 (at node 11)
Accepted flit rate average= 0.596875
	minimum = 0.5305 (at node 4)
	maximum = 0.656 (at node 11)
Injected packet length average = 4.00209
Accepted packet length average = 4.00251
Total in-flight flits = 310 (0 measured)
latency change    = 0.0427106
throughput change = 0.0128796
Class 0:
Packet latency average = 36.264
	minimum = 10
	maximum = 134
Network latency average = 33.9941
	minimum = 10
	maximum = 121
Slowest packet = 9574
Flit latency average = 27.2783
	minimum = 7
	maximum = 118
Slowest flit = 38299
Fragmentation average = 7.47866
	minimum = 0
	maximum = 90
Injected packet rate average = 0.147687
	minimum = 0.131 (at node 8)
	maximum = 0.165 (at node 6)
Accepted packet rate average = 0.147937
	minimum = 0.121 (at node 4)
	maximum = 0.161 (at node 3)
Injected flit rate average = 0.590375
	minimum = 0.524 (at node 8)
	maximum = 0.662 (at node 6)
Accepted flit rate average= 0.592187
	minimum = 0.484 (at node 4)
	maximum = 0.644 (at node 3)
Injected packet length average = 3.99746
Accepted packet length average = 4.00296
Total in-flight flits = 287 (0 measured)
latency change    = 0.0217158
throughput change = 0.00791557
Class 0:
Packet latency average = 36.4808
	minimum = 10
	maximum = 134
Network latency average = 34.2625
	minimum = 10
	maximum = 123
Slowest packet = 9574
Flit latency average = 27.4343
	minimum = 7
	maximum = 120
Slowest flit = 49195
Fragmentation average = 7.64015
	minimum = 0
	maximum = 90
Injected packet rate average = 0.149156
	minimum = 0.127 (at node 13)
	maximum = 0.1655 (at node 10)
Accepted packet rate average = 0.149281
	minimum = 0.127 (at node 4)
	maximum = 0.164 (at node 10)
Injected flit rate average = 0.596969
	minimum = 0.509 (at node 13)
	maximum = 0.662 (at node 10)
Accepted flit rate average= 0.598125
	minimum = 0.5085 (at node 4)
	maximum = 0.66 (at node 10)
Injected packet length average = 4.0023
Accepted packet length average = 4.0067
Total in-flight flits = 262 (0 measured)
latency change    = 0.0059428
throughput change = 0.00992685
Class 0:
Packet latency average = 36.9947
	minimum = 10
	maximum = 181
Network latency average = 34.8038
	minimum = 10
	maximum = 178
Slowest packet = 14363
Flit latency average = 27.8141
	minimum = 7
	maximum = 175
Slowest flit = 57455
Fragmentation average = 7.76577
	minimum = 0
	maximum = 124
Injected packet rate average = 0.151688
	minimum = 0.135 (at node 3)
	maximum = 0.172 (at node 1)
Accepted packet rate average = 0.152625
	minimum = 0.13 (at node 10)
	maximum = 0.183 (at node 13)
Injected flit rate average = 0.605938
	minimum = 0.54 (at node 3)
	maximum = 0.686 (at node 1)
Accepted flit rate average= 0.608125
	minimum = 0.512 (at node 10)
	maximum = 0.713 (at node 13)
Injected packet length average = 3.99464
Accepted packet length average = 3.98444
Total in-flight flits = 240 (0 measured)
latency change    = 0.0138893
throughput change = 0.016444
Class 0:
Packet latency average = 36.8626
	minimum = 10
	maximum = 181
Network latency average = 34.6
	minimum = 10
	maximum = 178
Slowest packet = 14363
Flit latency average = 27.6966
	minimum = 7
	maximum = 175
Slowest flit = 57455
Fragmentation average = 7.68926
	minimum = 0
	maximum = 132
Injected packet rate average = 0.151625
	minimum = 0.1295 (at node 11)
	maximum = 0.1625 (at node 8)
Accepted packet rate average = 0.151656
	minimum = 0.1385 (at node 9)
	maximum = 0.169 (at node 12)
Injected flit rate average = 0.606031
	minimum = 0.518 (at node 11)
	maximum = 0.65 (at node 14)
Accepted flit rate average= 0.606469
	minimum = 0.555 (at node 9)
	maximum = 0.6745 (at node 12)
Injected packet length average = 3.99691
Accepted packet length average = 3.99897
Total in-flight flits = 263 (0 measured)
latency change    = 0.00358405
throughput change = 0.00273097
Class 0:
Packet latency average = 37.5822
	minimum = 10
	maximum = 132
Network latency average = 35.2467
	minimum = 10
	maximum = 132
Slowest packet = 18803
Flit latency average = 28.1635
	minimum = 7
	maximum = 129
Slowest flit = 75215
Fragmentation average = 8.07679
	minimum = 0
	maximum = 73
Injected packet rate average = 0.1495
	minimum = 0.124 (at node 7)
	maximum = 0.171 (at node 0)
Accepted packet rate average = 0.14975
	minimum = 0.121 (at node 12)
	maximum = 0.182 (at node 4)
Injected flit rate average = 0.59825
	minimum = 0.494 (at node 7)
	maximum = 0.687 (at node 0)
Accepted flit rate average= 0.596688
	minimum = 0.484 (at node 12)
	maximum = 0.725 (at node 4)
Injected packet length average = 4.00167
Accepted packet length average = 3.98456
Total in-flight flits = 284 (0 measured)
latency change    = 0.019149
throughput change = 0.0163926
Class 0:
Packet latency average = 36.6165
	minimum = 10
	maximum = 135
Network latency average = 34.2688
	minimum = 10
	maximum = 132
Slowest packet = 18803
Flit latency average = 27.3659
	minimum = 7
	maximum = 129
Slowest flit = 75215
Fragmentation average = 7.70248
	minimum = 0
	maximum = 73
Injected packet rate average = 0.146875
	minimum = 0.1395 (at node 11)
	maximum = 0.1565 (at node 14)
Accepted packet rate average = 0.147156
	minimum = 0.1255 (at node 12)
	maximum = 0.1655 (at node 9)
Injected flit rate average = 0.5875
	minimum = 0.5565 (at node 11)
	maximum = 0.6255 (at node 14)
Accepted flit rate average= 0.587625
	minimum = 0.5035 (at node 12)
	maximum = 0.663 (at node 9)
Injected packet length average = 4
Accepted packet length average = 3.9932
Total in-flight flits = 259 (0 measured)
latency change    = 0.0263745
throughput change = 0.0154223
Too many sample periods needed to converge
Simulation unstable, ending ...
Total run time 0.459157
