BEGIN Configuration File: /home/s65oh/booksim2/runfiles/mesh_k5_inj0.05_pkt8.cfg
topology = mesh;
k = 5;
n = 2;
routing_function = dor;
traffic = uniform;
packet_size = 8;
injection_rate = 0.05;
sim_count = 100000;
warmup_periods = 1000;

END Configuration File: /home/s65oh/booksim2/runfiles/mesh_k5_inj0.05_pkt8.cfg
Class 0:
Packet latency average = 46.8894
	minimum = 14
	maximum = 179
Network latency average = 44.6232
	minimum = 14
	maximum = 179
Slowest packet = 649
Flit latency average = 31.9939
	minimum = 7
	maximum = 172
Slowest flit = 5198
Fragmentation average = 10.9127
	minimum = 0
	maximum = 115
Injected packet rate average = 0.04956
	minimum = 0.04 (at node 1)
	maximum = 0.059 (at node 9)
Accepted packet rate average = 0.04628
	minimum = 0.037 (at node 2)
	maximum = 0.06 (at node 19)
Injected flit rate average = 0.39424
	minimum = 0.32 (at node 1)
	maximum = 0.465 (at node 9)
Accepted flit rate average= 0.3786
	minimum = 0.3 (at node 2)
	maximum = 0.48 (at node 19)
Injected packet length average = 7.9548
Accepted packet length average = 8.18064
Total in-flight flits = 447 (0 measured)
latency change    = 1
throughput change = 1
Class 0:
Packet latency average = 47.2208
	minimum = 14
	maximum = 179
Network latency average = 44.908
	minimum = 14
	maximum = 179
Slowest packet = 649
Flit latency average = 31.947
	minimum = 7
	maximum = 172
Slowest flit = 5198
Fragmentation average = 11.6284
	minimum = 0
	maximum = 115
Injected packet rate average = 0.05004
	minimum = 0.0425 (at node 22)
	maximum = 0.062 (at node 4)
Accepted packet rate average = 0.04892
	minimum = 0.041 (at node 18)
	maximum = 0.0595 (at node 22)
Injected flit rate average = 0.39982
	minimum = 0.34 (at node 22)
	maximum = 0.493 (at node 4)
Accepted flit rate average= 0.39272
	minimum = 0.328 (at node 18)
	maximum = 0.476 (at node 22)
Injected packet length average = 7.99001
Accepted packet length average = 8.0278
Total in-flight flits = 380 (0 measured)
latency change    = 0.00701809
throughput change = 0.0359544
Class 0:
Packet latency average = 41.9408
	minimum = 14
	maximum = 170
Network latency average = 39.8715
	minimum = 14
	maximum = 170
Slowest packet = 2392
Flit latency average = 28.3275
	minimum = 7
	maximum = 163
Slowest flit = 19143
Fragmentation average = 8.57396
	minimum = 0
	maximum = 117
Injected packet rate average = 0.04724
	minimum = 0.028 (at node 4)
	maximum = 0.066 (at node 9)
Accepted packet rate average = 0.04732
	minimum = 0.035 (at node 17)
	maximum = 0.061 (at node 5)
Injected flit rate average = 0.37732
	minimum = 0.223 (at node 4)
	maximum = 0.53 (at node 9)
Accepted flit rate average= 0.37872
	minimum = 0.286 (at node 17)
	maximum = 0.5 (at node 5)
Injected packet length average = 7.9873
Accepted packet length average = 8.00338
Total in-flight flits = 360 (0 measured)
latency change    = 0.12589
throughput change = 0.0369666
Class 0:
Packet latency average = 42.9963
	minimum = 14
	maximum = 170
Network latency average = 40.9735
	minimum = 14
	maximum = 170
Slowest packet = 2392
Flit latency average = 29.0151
	minimum = 7
	maximum = 163
Slowest flit = 19143
Fragmentation average = 9.54692
	minimum = 0
	maximum = 117
Injected packet rate average = 0.0485
	minimum = 0.0395 (at node 4)
	maximum = 0.0605 (at node 11)
Accepted packet rate average = 0.04838
	minimum = 0.0365 (at node 9)
	maximum = 0.057 (at node 8)
Injected flit rate average = 0.3877
	minimum = 0.318 (at node 4)
	maximum = 0.4815 (at node 11)
Accepted flit rate average= 0.38792
	minimum = 0.2935 (at node 9)
	maximum = 0.456 (at node 8)
Injected packet length average = 7.99381
Accepted packet length average = 8.01819
Total in-flight flits = 384 (0 measured)
latency change    = 0.0245475
throughput change = 0.0237162
Class 0:
Packet latency average = 45.2718
	minimum = 14
	maximum = 164
Network latency average = 42.7913
	minimum = 14
	maximum = 161
Slowest packet = 4746
Flit latency average = 30.0591
	minimum = 7
	maximum = 154
Slowest flit = 37975
Fragmentation average = 10.7625
	minimum = 0
	maximum = 114
Injected packet rate average = 0.05108
	minimum = 0.038 (at node 15)
	maximum = 0.067 (at node 12)
Accepted packet rate average = 0.05136
	minimum = 0.038 (at node 12)
	maximum = 0.071 (at node 11)
Injected flit rate average = 0.40856
	minimum = 0.304 (at node 15)
	maximum = 0.542 (at node 12)
Accepted flit rate average= 0.4108
	minimum = 0.301 (at node 12)
	maximum = 0.568 (at node 11)
Injected packet length average = 7.99843
Accepted packet length average = 7.99844
Total in-flight flits = 330 (0 measured)
latency change    = 0.0502637
throughput change = 0.0556962
Class 0:
Packet latency average = 45.3938
	minimum = 14
	maximum = 164
Network latency average = 43.0521
	minimum = 14
	maximum = 161
Slowest packet = 4746
Flit latency average = 30.2805
	minimum = 7
	maximum = 154
Slowest flit = 37975
Fragmentation average = 10.9397
	minimum = 0
	maximum = 114
Injected packet rate average = 0.05072
	minimum = 0.0445 (at node 21)
	maximum = 0.058 (at node 5)
Accepted packet rate average = 0.05104
	minimum = 0.0425 (at node 8)
	maximum = 0.064 (at node 11)
Injected flit rate average = 0.40646
	minimum = 0.356 (at node 21)
	maximum = 0.464 (at node 5)
Accepted flit rate average= 0.4081
	minimum = 0.3385 (at node 12)
	maximum = 0.5155 (at node 11)
Injected packet length average = 8.0138
Accepted packet length average = 7.99569
Total in-flight flits = 267 (0 measured)
latency change    = 0.00268763
throughput change = 0.00661603
Class 0:
Packet latency average = 44.322
	minimum = 14
	maximum = 144
Network latency average = 42.3203
	minimum = 14
	maximum = 144
Slowest packet = 8004
Flit latency average = 29.9768
	minimum = 7
	maximum = 137
Slowest flit = 64039
Fragmentation average = 10.1834
	minimum = 0
	maximum = 78
Injected packet rate average = 0.0482
	minimum = 0.03 (at node 0)
	maximum = 0.061 (at node 4)
Accepted packet rate average = 0.0482
	minimum = 0.035 (at node 22)
	maximum = 0.062 (at node 21)
Injected flit rate average = 0.38512
	minimum = 0.24 (at node 0)
	maximum = 0.484 (at node 4)
Accepted flit rate average= 0.3842
	minimum = 0.28 (at node 22)
	maximum = 0.497 (at node 21)
Injected packet length average = 7.99004
Accepted packet length average = 7.97095
Total in-flight flits = 302 (0 measured)
latency change    = 0.0241825
throughput change = 0.0622072
Class 0:
Packet latency average = 45.809
	minimum = 14
	maximum = 220
Network latency average = 43.5089
	minimum = 14
	maximum = 218
Slowest packet = 8945
Flit latency average = 30.8225
	minimum = 7
	maximum = 211
Slowest flit = 71567
Fragmentation average = 11.0077
	minimum = 0
	maximum = 130
Injected packet rate average = 0.05026
	minimum = 0.0395 (at node 3)
	maximum = 0.0555 (at node 8)
Accepted packet rate average = 0.04964
	minimum = 0.0385 (at node 18)
	maximum = 0.0595 (at node 21)
Injected flit rate average = 0.40134
	minimum = 0.316 (at node 3)
	maximum = 0.4405 (at node 8)
Accepted flit rate average= 0.39788
	minimum = 0.308 (at node 18)
	maximum = 0.4785 (at node 21)
Injected packet length average = 7.98528
Accepted packet length average = 8.01531
Total in-flight flits = 477 (0 measured)
latency change    = 0.0324616
throughput change = 0.0343822
Class 0:
Packet latency average = 48.2113
	minimum = 14
	maximum = 144
Network latency average = 45.7192
	minimum = 14
	maximum = 144
Slowest packet = 11068
Flit latency average = 32.1821
	minimum = 7
	maximum = 137
Slowest flit = 88551
Fragmentation average = 12.7426
	minimum = 0
	maximum = 86
Injected packet rate average = 0.05268
	minimum = 0.038 (at node 8)
	maximum = 0.072 (at node 15)
Accepted packet rate average = 0.053
	minimum = 0.039 (at node 6)
	maximum = 0.068 (at node 20)
Injected flit rate average = 0.42152
	minimum = 0.311 (at node 8)
	maximum = 0.576 (at node 15)
Accepted flit rate average= 0.42276
	minimum = 0.315 (at node 19)
	maximum = 0.52 (at node 20)
Injected packet length average = 8.00152
Accepted packet length average = 7.9766
Total in-flight flits = 444 (0 measured)
latency change    = 0.0498285
throughput change = 0.0588514
Class 0:
Packet latency average = 47.447
	minimum = 14
	maximum = 177
Network latency average = 45.1012
	minimum = 14
	maximum = 177
Slowest packet = 11105
Flit latency average = 31.7971
	minimum = 7
	maximum = 170
Slowest flit = 88847
Fragmentation average = 12.1172
	minimum = 0
	maximum = 110
Injected packet rate average = 0.05086
	minimum = 0.0415 (at node 8)
	maximum = 0.06 (at node 0)
Accepted packet rate average = 0.05136
	minimum = 0.0405 (at node 6)
	maximum = 0.064 (at node 20)
Injected flit rate average = 0.4073
	minimum = 0.3355 (at node 8)
	maximum = 0.4835 (at node 0)
Accepted flit rate average= 0.41064
	minimum = 0.321 (at node 6)
	maximum = 0.5 (at node 20)
Injected packet length average = 8.00826
Accepted packet length average = 7.99533
Total in-flight flits = 289 (0 measured)
latency change    = 0.0161081
throughput change = 0.0295149
Too many sample periods needed to converge
Simulation unstable, ending ...
Total run time 0.516628
