BEGIN Configuration File: /home/s65oh/booksim2/runfiles/mesh_k3_inj0.05_pkt12.cfg
topology = mesh;
k = 3;
n = 2;
routing_function = dor;
traffic = uniform;
packet_size = 12;
injection_rate = 0.05;
sim_count = 100000;
warmup_periods = 1000;

END Configuration File: /home/s65oh/booksim2/runfiles/mesh_k3_inj0.05_pkt12.cfg
Class 0:
Packet latency average = 61.7687
	minimum = 18
	maximum = 246
Network latency average = 51.7253
	minimum = 18
	maximum = 230
Slowest packet = 327
Flit latency average = 30.2848
	minimum = 7
	maximum = 218
Slowest flit = 3935
Fragmentation average = 21.2289
	minimum = 0
	maximum = 146
Injected packet rate average = 0.0487778
	minimum = 0.042 (at node 6)
	maximum = 0.054 (at node 1)
Accepted packet rate average = 0.0461111
	minimum = 0.038 (at node 0)
	maximum = 0.059 (at node 2)
Injected flit rate average = 0.583111
	minimum = 0.504 (at node 6)
	maximum = 0.645 (at node 1)
Accepted flit rate average= 0.563333
	minimum = 0.463 (at node 1)
	maximum = 0.724 (at node 2)
Injected packet length average = 11.9544
Accepted packet length average = 12.2169
Total in-flight flits = 198 (0 measured)
latency change    = 1
throughput change = 1
Class 0:
Packet latency average = 57.9755
	minimum = 18
	maximum = 246
Network latency average = 49.1494
	minimum = 18
	maximum = 230
Slowest packet = 327
Flit latency average = 28.6712
	minimum = 7
	maximum = 218
Slowest flit = 3935
Fragmentation average = 18.9977
	minimum = 0
	maximum = 146
Injected packet rate average = 0.0486667
	minimum = 0.0425 (at node 4)
	maximum = 0.057 (at node 1)
Accepted packet rate average = 0.0476111
	minimum = 0.0455 (at node 0)
	maximum = 0.0525 (at node 2)
Injected flit rate average = 0.582833
	minimum = 0.505 (at node 4)
	maximum = 0.6835 (at node 1)
Accepted flit rate average= 0.574722
	minimum = 0.5505 (at node 8)
	maximum = 0.634 (at node 2)
Injected packet length average = 11.976
Accepted packet length average = 12.0712
Total in-flight flits = 167 (0 measured)
latency change    = 0.0654273
throughput change = 0.0198163
Class 0:
Packet latency average = 61.0223
	minimum = 18
	maximum = 164
Network latency average = 47.2405
	minimum = 18
	maximum = 136
Slowest packet = 834
Flit latency average = 26.9816
	minimum = 7
	maximum = 124
Slowest flit = 11939
Fragmentation average = 17.6904
	minimum = 0
	maximum = 106
Injected packet rate average = 0.0502222
	minimum = 0.042 (at node 5)
	maximum = 0.058 (at node 8)
Accepted packet rate average = 0.0498889
	minimum = 0.042 (at node 6)
	maximum = 0.064 (at node 7)
Injected flit rate average = 0.601889
	minimum = 0.505 (at node 5)
	maximum = 0.693 (at node 8)
Accepted flit rate average= 0.602556
	minimum = 0.516 (at node 1)
	maximum = 0.759 (at node 7)
Injected packet length average = 11.9845
Accepted packet length average = 12.078
Total in-flight flits = 168 (0 measured)
latency change    = 0.0499289
throughput change = 0.0461921
Class 0:
Packet latency average = 56.7588
	minimum = 18
	maximum = 164
Network latency average = 45.0284
	minimum = 18
	maximum = 136
Slowest packet = 834
Flit latency average = 25.742
	minimum = 7
	maximum = 124
Slowest flit = 11939
Fragmentation average = 15.9636
	minimum = 0
	maximum = 106
Injected packet rate average = 0.049
	minimum = 0.04 (at node 1)
	maximum = 0.0555 (at node 2)
Accepted packet rate average = 0.0488333
	minimum = 0.041 (at node 1)
	maximum = 0.0545 (at node 7)
Injected flit rate average = 0.586278
	minimum = 0.475 (at node 1)
	maximum = 0.665 (at node 2)
Accepted flit rate average= 0.586833
	minimum = 0.503 (at node 1)
	maximum = 0.6525 (at node 7)
Injected packet length average = 11.9649
Accepted packet length average = 12.0171
Total in-flight flits = 188 (0 measured)
latency change    = 0.0751153
throughput change = 0.0267916
Class 0:
Packet latency average = 64.3542
	minimum = 18
	maximum = 217
Network latency average = 49.2875
	minimum = 18
	maximum = 145
Slowest packet = 1737
Flit latency average = 28.3599
	minimum = 7
	maximum = 134
Slowest flit = 24719
Fragmentation average = 19.9375
	minimum = 0
	maximum = 108
Injected packet rate average = 0.0532222
	minimum = 0.038 (at node 6)
	maximum = 0.062 (at node 7)
Accepted packet rate average = 0.0533333
	minimum = 0.047 (at node 0)
	maximum = 0.062 (at node 5)
Injected flit rate average = 0.640667
	minimum = 0.466 (at node 6)
	maximum = 0.748 (at node 7)
Accepted flit rate average= 0.639
	minimum = 0.554 (at node 3)
	maximum = 0.737 (at node 5)
Injected packet length average = 12.0376
Accepted packet length average = 11.9812
Total in-flight flits = 185 (0 measured)
latency change    = 0.118024
throughput change = 0.081638
Class 0:
Packet latency average = 60.9648
	minimum = 18
	maximum = 217
Network latency average = 48.2519
	minimum = 18
	maximum = 153
Slowest packet = 1737
Flit latency average = 27.8771
	minimum = 7
	maximum = 141
Slowest flit = 26627
Fragmentation average = 18.8581
	minimum = 0
	maximum = 119
Injected packet rate average = 0.0522778
	minimum = 0.0445 (at node 6)
	maximum = 0.06 (at node 3)
Accepted packet rate average = 0.0520556
	minimum = 0.046 (at node 0)
	maximum = 0.0595 (at node 5)
Injected flit rate average = 0.628778
	minimum = 0.539 (at node 2)
	maximum = 0.7235 (at node 3)
Accepted flit rate average= 0.626556
	minimum = 0.553 (at node 8)
	maximum = 0.7125 (at node 5)
Injected packet length average = 12.0276
Accepted packet length average = 12.0363
Total in-flight flits = 202 (0 measured)
latency change    = 0.0555958
throughput change = 0.0198617
Class 0:
Packet latency average = 58.1168
	minimum = 18
	maximum = 166
Network latency average = 43.91
	minimum = 18
	maximum = 138
Slowest packet = 2648
Flit latency average = 25.3029
	minimum = 7
	maximum = 127
Slowest flit = 31787
Fragmentation average = 14.9489
	minimum = 0
	maximum = 69
Injected packet rate average = 0.0461111
	minimum = 0.039 (at node 4)
	maximum = 0.056 (at node 3)
Accepted packet rate average = 0.0456667
	minimum = 0.037 (at node 2)
	maximum = 0.054 (at node 7)
Injected flit rate average = 0.552333
	minimum = 0.47 (at node 4)
	maximum = 0.668 (at node 3)
Accepted flit rate average= 0.548111
	minimum = 0.442 (at node 2)
	maximum = 0.656 (at node 7)
Injected packet length average = 11.9783
Accepted packet length average = 12.0024
Total in-flight flits = 249 (0 measured)
latency change    = 0.0490047
throughput change = 0.143118
Class 0:
Packet latency average = 59.027
	minimum = 18
	maximum = 177
Network latency average = 45.6647
	minimum = 18
	maximum = 140
Slowest packet = 2648
Flit latency average = 26.1554
	minimum = 7
	maximum = 129
Slowest flit = 36851
Fragmentation average = 16.8687
	minimum = 0
	maximum = 97
Injected packet rate average = 0.0468333
	minimum = 0.041 (at node 4)
	maximum = 0.0525 (at node 5)
Accepted packet rate average = 0.0473889
	minimum = 0.042 (at node 2)
	maximum = 0.054 (at node 7)
Injected flit rate average = 0.561889
	minimum = 0.4885 (at node 4)
	maximum = 0.629 (at node 5)
Accepted flit rate average= 0.565278
	minimum = 0.498 (at node 2)
	maximum = 0.6415 (at node 7)
Injected packet length average = 11.9976
Accepted packet length average = 11.9285
Total in-flight flits = 143 (0 measured)
latency change    = 0.0154197
throughput change = 0.0303686
Class 0:
Packet latency average = 50.0117
	minimum = 18
	maximum = 192
Network latency average = 42.8028
	minimum = 18
	maximum = 173
Slowest packet = 3673
Flit latency average = 24.4654
	minimum = 7
	maximum = 160
Slowest flit = 44087
Fragmentation average = 14.554
	minimum = 0
	maximum = 138
Injected packet rate average = 0.0488889
	minimum = 0.042 (at node 6)
	maximum = 0.057 (at node 3)
Accepted packet rate average = 0.0473333
	minimum = 0.04 (at node 1)
	maximum = 0.059 (at node 3)
Injected flit rate average = 0.587222
	minimum = 0.507 (at node 6)
	maximum = 0.685 (at node 3)
Accepted flit rate average= 0.579889
	minimum = 0.497 (at node 1)
	maximum = 0.743 (at node 3)
Injected packet length average = 12.0114
Accepted packet length average = 12.2512
Total in-flight flits = 204 (0 measured)
latency change    = 0.180262
throughput change = 0.0251964
Class 0:
Packet latency average = 54.6782
	minimum = 18
	maximum = 265
Network latency average = 45.7575
	minimum = 18
	maximum = 245
Slowest packet = 4231
Flit latency average = 26.3323
	minimum = 7
	maximum = 233
Slowest flit = 50783
Fragmentation average = 16.7724
	minimum = 0
	maximum = 175
Injected packet rate average = 0.0488889
	minimum = 0.042 (at node 7)
	maximum = 0.0545 (at node 3)
Accepted packet rate average = 0.0483333
	minimum = 0.0395 (at node 1)
	maximum = 0.0565 (at node 3)
Injected flit rate average = 0.586556
	minimum = 0.504 (at node 7)
	maximum = 0.6515 (at node 3)
Accepted flit rate average= 0.583611
	minimum = 0.4785 (at node 1)
	maximum = 0.6885 (at node 3)
Injected packet length average = 11.9977
Accepted packet length average = 12.0747
Total in-flight flits = 198 (0 measured)
latency change    = 0.0853435
throughput change = 0.00637792
Too many sample periods needed to converge
Simulation unstable, ending ...
Total run time 0.153008
