BEGIN Configuration File: /home/s65oh/booksim2/runfiles/mesh_k4_inj0.05_pkt8.cfg
topology = mesh;
k = 4;
n = 2;
routing_function = dor;
traffic = uniform;
packet_size = 8;
injection_rate = 0.05;
sim_count = 100000;
warmup_periods = 1000;

END Configuration File: /home/s65oh/booksim2/runfiles/mesh_k4_inj0.05_pkt8.cfg
Class 0:
Packet latency average = 36.7035
	minimum = 14
	maximum = 91
Network latency average = 34.0878
	minimum = 14
	maximum = 81
Slowest packet = 93
Flit latency average = 23.6004
	minimum = 7
	maximum = 74
Slowest flit = 2567
Fragmentation average = 6.74734
	minimum = 0
	maximum = 44
Injected packet rate average = 0.048875
	minimum = 0.04 (at node 2)
	maximum = 0.06 (at node 5)
Accepted packet rate average = 0.047
	minimum = 0.037 (at node 11)
	maximum = 0.053 (at node 0)
Injected flit rate average = 0.389875
	minimum = 0.315 (at node 8)
	maximum = 0.476 (at node 5)
Accepted flit rate average= 0.38025
	minimum = 0.301 (at node 11)
	maximum = 0.428 (at node 12)
Injected packet length average = 7.97698
Accepted packet length average = 8.09043
Total in-flight flits = 172 (0 measured)
latency change    = 1
throughput change = 1
Class 0:
Packet latency average = 37.5604
	minimum = 14
	maximum = 117
Network latency average = 35.0826
	minimum = 14
	maximum = 110
Slowest packet = 751
Flit latency average = 24.2743
	minimum = 7
	maximum = 103
Slowest flit = 9031
Fragmentation average = 7.34345
	minimum = 0
	maximum = 77
Injected packet rate average = 0.049125
	minimum = 0.045 (at node 7)
	maximum = 0.0565 (at node 5)
Accepted packet rate average = 0.0484062
	minimum = 0.04 (at node 14)
	maximum = 0.055 (at node 12)
Injected flit rate average = 0.391969
	minimum = 0.36 (at node 7)
	maximum = 0.452 (at node 5)
Accepted flit rate average= 0.388094
	minimum = 0.323 (at node 14)
	maximum = 0.44 (at node 12)
Injected packet length average = 7.97901
Accepted packet length average = 8.01743
Total in-flight flits = 157 (0 measured)
latency change    = 0.0228141
throughput change = 0.020211
Class 0:
Packet latency average = 37.508
	minimum = 14
	maximum = 107
Network latency average = 34.8335
	minimum = 14
	maximum = 87
Slowest packet = 1567
Flit latency average = 24.0704
	minimum = 7
	maximum = 80
Slowest flit = 14983
Fragmentation average = 7.36353
	minimum = 0
	maximum = 53
Injected packet rate average = 0.0515625
	minimum = 0.038 (at node 9)
	maximum = 0.063 (at node 5)
Accepted packet rate average = 0.0510625
	minimum = 0.041 (at node 4)
	maximum = 0.062 (at node 15)
Injected flit rate average = 0.412875
	minimum = 0.304 (at node 9)
	maximum = 0.502 (at node 5)
Accepted flit rate average= 0.409125
	minimum = 0.321 (at node 4)
	maximum = 0.503 (at node 15)
Injected packet length average = 8.00727
Accepted packet length average = 8.01224
Total in-flight flits = 211 (0 measured)
latency change    = 0.00139719
throughput change = 0.0514054
Class 0:
Packet latency average = 37.323
	minimum = 14
	maximum = 118
Network latency average = 34.728
	minimum = 14
	maximum = 99
Slowest packet = 1567
Flit latency average = 24.0583
	minimum = 7
	maximum = 92
Slowest flit = 22703
Fragmentation average = 7.14232
	minimum = 0
	maximum = 59
Injected packet rate average = 0.0497812
	minimum = 0.042 (at node 6)
	maximum = 0.0595 (at node 10)
Accepted packet rate average = 0.049625
	minimum = 0.0395 (at node 4)
	maximum = 0.0545 (at node 0)
Injected flit rate average = 0.3985
	minimum = 0.336 (at node 6)
	maximum = 0.4775 (at node 10)
Accepted flit rate average= 0.397188
	minimum = 0.3125 (at node 4)
	maximum = 0.436 (at node 0)
Injected packet length average = 8.00502
Accepted packet length average = 8.00378
Total in-flight flits = 191 (0 measured)
latency change    = 0.00495426
throughput change = 0.0300551
Class 0:
Packet latency average = 35.8654
	minimum = 14
	maximum = 108
Network latency average = 34.1333
	minimum = 14
	maximum = 95
Slowest packet = 3488
Flit latency average = 23.6533
	minimum = 7
	maximum = 88
Slowest flit = 27909
Fragmentation average = 6.77255
	minimum = 0
	maximum = 57
Injected packet rate average = 0.047625
	minimum = 0.037 (at node 6)
	maximum = 0.056 (at node 0)
Accepted packet rate average = 0.0478125
	minimum = 0.039 (at node 5)
	maximum = 0.061 (at node 6)
Injected flit rate average = 0.381375
	minimum = 0.296 (at node 6)
	maximum = 0.448 (at node 0)
Accepted flit rate average= 0.383125
	minimum = 0.317 (at node 5)
	maximum = 0.491 (at node 6)
Injected packet length average = 8.00787
Accepted packet length average = 8.01307
Total in-flight flits = 157 (0 measured)
latency change    = 0.0406434
throughput change = 0.0367047
Class 0:
Packet latency average = 36.3404
	minimum = 14
	maximum = 108
Network latency average = 34.2856
	minimum = 14
	maximum = 102
Slowest packet = 3488
Flit latency average = 23.671
	minimum = 7
	maximum = 95
Slowest flit = 34711
Fragmentation average = 7.01805
	minimum = 0
	maximum = 57
Injected packet rate average = 0.0482812
	minimum = 0.0385 (at node 8)
	maximum = 0.0575 (at node 13)
Accepted packet rate average = 0.0484687
	minimum = 0.043 (at node 4)
	maximum = 0.056 (at node 6)
Injected flit rate average = 0.386437
	minimum = 0.3045 (at node 8)
	maximum = 0.46 (at node 13)
Accepted flit rate average= 0.387125
	minimum = 0.344 (at node 4)
	maximum = 0.447 (at node 6)
Injected packet length average = 8.00388
Accepted packet length average = 7.98711
Total in-flight flits = 163 (0 measured)
latency change    = 0.0130727
throughput change = 0.0103326
Class 0:
Packet latency average = 38.1616
	minimum = 14
	maximum = 87
Network latency average = 35.7944
	minimum = 14
	maximum = 85
Slowest packet = 4737
Flit latency average = 24.5748
	minimum = 7
	maximum = 78
Slowest flit = 38615
Fragmentation average = 8.17748
	minimum = 0
	maximum = 53
Injected packet rate average = 0.0511875
	minimum = 0.044 (at node 1)
	maximum = 0.063 (at node 5)
Accepted packet rate average = 0.0510625
	minimum = 0.042 (at node 6)
	maximum = 0.07 (at node 1)
Injected flit rate average = 0.409062
	minimum = 0.349 (at node 1)
	maximum = 0.504 (at node 5)
Accepted flit rate average= 0.410813
	minimum = 0.336 (at node 6)
	maximum = 0.558 (at node 1)
Injected packet length average = 7.99145
Accepted packet length average = 8.04529
Total in-flight flits = 142 (0 measured)
latency change    = 0.0477219
throughput change = 0.0576601
Class 0:
Packet latency average = 37.7624
	minimum = 14
	maximum = 98
Network latency average = 35.4082
	minimum = 14
	maximum = 92
Slowest packet = 5655
Flit latency average = 24.3791
	minimum = 7
	maximum = 85
Slowest flit = 45247
Fragmentation average = 7.86065
	minimum = 0
	maximum = 53
Injected packet rate average = 0.0509063
	minimum = 0.045 (at node 11)
	maximum = 0.0555 (at node 0)
Accepted packet rate average = 0.0509063
	minimum = 0.0415 (at node 6)
	maximum = 0.061 (at node 1)
Injected flit rate average = 0.407281
	minimum = 0.3605 (at node 11)
	maximum = 0.444 (at node 0)
Accepted flit rate average= 0.408031
	minimum = 0.332 (at node 13)
	maximum = 0.487 (at node 1)
Injected packet length average = 8.00061
Accepted packet length average = 8.01535
Total in-flight flits = 138 (0 measured)
latency change    = 0.0105697
throughput change = 0.00681627
Class 0:
Packet latency average = 38.6136
	minimum = 14
	maximum = 119
Network latency average = 36.0498
	minimum = 14
	maximum = 110
Slowest packet = 7066
Flit latency average = 24.7207
	minimum = 7
	maximum = 103
Slowest flit = 56535
Fragmentation average = 8.49575
	minimum = 0
	maximum = 85
Injected packet rate average = 0.0516875
	minimum = 0.042 (at node 0)
	maximum = 0.061 (at node 15)
Accepted packet rate average = 0.0514375
	minimum = 0.039 (at node 1)
	maximum = 0.062 (at node 8)
Injected flit rate average = 0.413
	minimum = 0.333 (at node 0)
	maximum = 0.484 (at node 15)
Accepted flit rate average= 0.412187
	minimum = 0.319 (at node 1)
	maximum = 0.502 (at node 8)
Injected packet length average = 7.99033
Accepted packet length average = 8.01337
Total in-flight flits = 159 (0 measured)
latency change    = 0.0220435
throughput change = 0.0100834
Class 0:
Packet latency average = 36.8998
	minimum = 14
	maximum = 119
Network latency average = 34.5136
	minimum = 14
	maximum = 110
Slowest packet = 7066
Flit latency average = 23.7995
	minimum = 7
	maximum = 103
Slowest flit = 56535
Fragmentation average = 7.29994
	minimum = 0
	maximum = 85
Injected packet rate average = 0.0491562
	minimum = 0.039 (at node 12)
	maximum = 0.058 (at node 15)
Accepted packet rate average = 0.0492812
	minimum = 0.04 (at node 5)
	maximum = 0.0585 (at node 11)
Injected flit rate average = 0.39325
	minimum = 0.3115 (at node 12)
	maximum = 0.4625 (at node 15)
Accepted flit rate average= 0.393625
	minimum = 0.319 (at node 5)
	maximum = 0.468 (at node 11)
Injected packet length average = 8
Accepted packet length average = 7.98732
Total in-flight flits = 126 (0 measured)
latency change    = 0.0464447
throughput change = 0.0471578
Too many sample periods needed to converge
Simulation unstable, ending ...
Total run time 0.246016
