BEGIN Configuration File: /home/s65oh/booksim2/runfiles/mesh_k7_inj0.1_pkt4.cfg
topology = mesh;
k = 7;
n = 2;
routing_function = dor;
traffic = uniform;
packet_size = 4;
injection_rate = 0.1;
sim_count = 100000;
warmup_periods = 1000;

END Configuration File: /home/s65oh/booksim2/runfiles/mesh_k7_inj0.1_pkt4.cfg
Class 0:
Packet latency average = 46.5176
	minimum = 10
	maximum = 190
Network latency average = 45.5366
	minimum = 10
	maximum = 190
Slowest packet = 1616
Flit latency average = 38.5895
	minimum = 7
	maximum = 187
Slowest flit = 6467
Fragmentation average = 7.47272
	minimum = 0
	maximum = 79
Injected packet rate average = 0.097898
	minimum = 0.077 (at node 23)
	maximum = 0.123 (at node 5)
Accepted packet rate average = 0.0923878
	minimum = 0.068 (at node 4)
	maximum = 0.122 (at node 24)
Injected flit rate average = 0.390735
	minimum = 0.308 (at node 23)
	maximum = 0.49 (at node 5)
Accepted flit rate average= 0.372429
	minimum = 0.276 (at node 4)
	maximum = 0.489 (at node 24)
Injected packet length average = 3.99124
Accepted packet length average = 4.03115
Total in-flight flits = 939 (0 measured)
latency change    = 1
throughput change = 1
Class 0:
Packet latency average = 48.6341
	minimum = 10
	maximum = 226
Network latency average = 47.6823
	minimum = 10
	maximum = 225
Slowest packet = 7092
Flit latency average = 40.2753
	minimum = 7
	maximum = 222
Slowest flit = 28371
Fragmentation average = 8.36732
	minimum = 0
	maximum = 83
Injected packet rate average = 0.0986224
	minimum = 0.0825 (at node 15)
	maximum = 0.112 (at node 5)
Accepted packet rate average = 0.0959796
	minimum = 0.08 (at node 4)
	maximum = 0.1165 (at node 24)
Injected flit rate average = 0.394153
	minimum = 0.3295 (at node 15)
	maximum = 0.4475 (at node 5)
Accepted flit rate average= 0.385092
	minimum = 0.32 (at node 4)
	maximum = 0.468 (at node 24)
Injected packet length average = 3.99659
Accepted packet length average = 4.01223
Total in-flight flits = 921 (0 measured)
latency change    = 0.0435189
throughput change = 0.0328838
Class 0:
Packet latency average = 53.2695
	minimum = 10
	maximum = 224
Network latency average = 52.2883
	minimum = 10
	maximum = 219
Slowest packet = 12200
Flit latency average = 43.8864
	minimum = 7
	maximum = 216
Slowest flit = 48803
Fragmentation average = 10.2339
	minimum = 0
	maximum = 108
Injected packet rate average = 0.099102
	minimum = 0.077 (at node 9)
	maximum = 0.118 (at node 32)
Accepted packet rate average = 0.0997959
	minimum = 0.082 (at node 20)
	maximum = 0.125 (at node 28)
Injected flit rate average = 0.396408
	minimum = 0.308 (at node 9)
	maximum = 0.471 (at node 32)
Accepted flit rate average= 0.399551
	minimum = 0.326 (at node 20)
	maximum = 0.499 (at node 28)
Injected packet length average = 4
Accepted packet length average = 4.00368
Total in-flight flits = 767 (0 measured)
latency change    = 0.0870191
throughput change = 0.0361886
Class 0:
Packet latency average = 52.0469
	minimum = 10
	maximum = 254
Network latency average = 51.0567
	minimum = 10
	maximum = 253
Slowest packet = 16621
Flit latency average = 42.9128
	minimum = 7
	maximum = 250
Slowest flit = 66487
Fragmentation average = 9.71909
	minimum = 0
	maximum = 108
Injected packet rate average = 0.0987347
	minimum = 0.0815 (at node 7)
	maximum = 0.1115 (at node 44)
Accepted packet rate average = 0.0991327
	minimum = 0.0845 (at node 6)
	maximum = 0.1165 (at node 28)
Injected flit rate average = 0.39498
	minimum = 0.326 (at node 7)
	maximum = 0.446 (at node 44)
Accepted flit rate average= 0.396541
	minimum = 0.3395 (at node 6)
	maximum = 0.4655 (at node 28)
Injected packet length average = 4.00041
Accepted packet length average = 4.0001
Total in-flight flits = 764 (0 measured)
latency change    = 0.0234902
throughput change = 0.00759116
Class 0:
Packet latency average = 51.9291
	minimum = 10
	maximum = 258
Network latency average = 50.8785
	minimum = 10
	maximum = 258
Slowest packet = 19940
Flit latency average = 42.744
	minimum = 7
	maximum = 255
Slowest flit = 79763
Fragmentation average = 9.74862
	minimum = 0
	maximum = 107
Injected packet rate average = 0.100102
	minimum = 0.084 (at node 19)
	maximum = 0.124 (at node 48)
Accepted packet rate average = 0.100102
	minimum = 0.083 (at node 11)
	maximum = 0.119 (at node 2)
Injected flit rate average = 0.400408
	minimum = 0.337 (at node 19)
	maximum = 0.496 (at node 48)
Accepted flit rate average= 0.399857
	minimum = 0.328 (at node 11)
	maximum = 0.474 (at node 2)
Injected packet length average = 4
Accepted packet length average = 3.9945
Total in-flight flits = 791 (0 measured)
latency change    = 0.00227013
throughput change = 0.00829378
Class 0:
Packet latency average = 51.6926
	minimum = 10
	maximum = 374
Network latency average = 50.6804
	minimum = 10
	maximum = 372
Slowest packet = 24610
Flit latency average = 42.691
	minimum = 7
	maximum = 369
Slowest flit = 98443
Fragmentation average = 9.47199
	minimum = 0
	maximum = 148
Injected packet rate average = 0.0999796
	minimum = 0.0825 (at node 38)
	maximum = 0.1165 (at node 48)
Accepted packet rate average = 0.0994694
	minimum = 0.0845 (at node 11)
	maximum = 0.118 (at node 2)
Injected flit rate average = 0.400082
	minimum = 0.3315 (at node 38)
	maximum = 0.466 (at node 48)
Accepted flit rate average= 0.398204
	minimum = 0.339 (at node 11)
	maximum = 0.472 (at node 2)
Injected packet length average = 4.00163
Accepted packet length average = 4.00328
Total in-flight flits = 932 (0 measured)
latency change    = 0.00457512
throughput change = 0.00415129
Class 0:
Packet latency average = 52.285
	minimum = 10
	maximum = 213
Network latency average = 51.3023
	minimum = 10
	maximum = 213
Slowest packet = 32319
Flit latency average = 43.252
	minimum = 7
	maximum = 210
Slowest flit = 129279
Fragmentation average = 9.54469
	minimum = 0
	maximum = 92
Injected packet rate average = 0.101469
	minimum = 0.083 (at node 5)
	maximum = 0.118 (at node 15)
Accepted packet rate average = 0.101612
	minimum = 0.082 (at node 18)
	maximum = 0.132 (at node 41)
Injected flit rate average = 0.40551
	minimum = 0.332 (at node 5)
	maximum = 0.472 (at node 15)
Accepted flit rate average= 0.406143
	minimum = 0.332 (at node 18)
	maximum = 0.525 (at node 41)
Injected packet length average = 3.99638
Accepted packet length average = 3.99699
Total in-flight flits = 919 (0 measured)
latency change    = 0.0113311
throughput change = 0.0195468
Class 0:
Packet latency average = 50.7519
	minimum = 10
	maximum = 230
Network latency average = 49.7883
	minimum = 10
	maximum = 226
Slowest packet = 33784
Flit latency average = 41.9787
	minimum = 7
	maximum = 223
Slowest flit = 135139
Fragmentation average = 9.11204
	minimum = 0
	maximum = 120
Injected packet rate average = 0.0999898
	minimum = 0.0845 (at node 35)
	maximum = 0.114 (at node 46)
Accepted packet rate average = 0.0999082
	minimum = 0.0855 (at node 44)
	maximum = 0.119 (at node 2)
Injected flit rate average = 0.399776
	minimum = 0.338 (at node 35)
	maximum = 0.4555 (at node 46)
Accepted flit rate average= 0.399653
	minimum = 0.3405 (at node 44)
	maximum = 0.4755 (at node 2)
Injected packet length average = 3.99816
Accepted packet length average = 4.0002
Total in-flight flits = 962 (0 measured)
latency change    = 0.0302074
throughput change = 0.0162386
Class 0:
Packet latency average = 50.7628
	minimum = 10
	maximum = 197
Network latency average = 49.743
	minimum = 10
	maximum = 197
Slowest packet = 38454
Flit latency average = 41.8648
	minimum = 7
	maximum = 194
Slowest flit = 153819
Fragmentation average = 9.07928
	minimum = 0
	maximum = 85
Injected packet rate average = 0.0983469
	minimum = 0.076 (at node 29)
	maximum = 0.116 (at node 35)
Accepted packet rate average = 0.099102
	minimum = 0.077 (at node 36)
	maximum = 0.131 (at node 14)
Injected flit rate average = 0.393286
	minimum = 0.306 (at node 29)
	maximum = 0.462 (at node 35)
Accepted flit rate average= 0.39549
	minimum = 0.306 (at node 36)
	maximum = 0.516 (at node 14)
Injected packet length average = 3.99896
Accepted packet length average = 3.99073
Total in-flight flits = 859 (0 measured)
latency change    = 0.000213792
throughput change = 0.0105269
Class 0:
Packet latency average = 50.5898
	minimum = 10
	maximum = 200
Network latency average = 49.5696
	minimum = 10
	maximum = 200
Slowest packet = 44389
Flit latency average = 41.7277
	minimum = 7
	maximum = 197
Slowest flit = 177559
Fragmentation average = 9.13534
	minimum = 0
	maximum = 101
Injected packet rate average = 0.0980816
	minimum = 0.0845 (at node 27)
	maximum = 0.111 (at node 26)
Accepted packet rate average = 0.0987653
	minimum = 0.08 (at node 22)
	maximum = 0.115 (at node 14)
Injected flit rate average = 0.392439
	minimum = 0.3385 (at node 27)
	maximum = 0.444 (at node 26)
Accepted flit rate average= 0.394735
	minimum = 0.32 (at node 22)
	maximum = 0.457 (at node 15)
Injected packet length average = 4.00114
Accepted packet length average = 3.99669
Total in-flight flits = 726 (0 measured)
latency change    = 0.00341836
throughput change = 0.00191294
Too many sample periods needed to converge
Simulation unstable, ending ...
Total run time 1.59573
