BEGIN Configuration File: /home/s65oh/booksim2/runfiles/mesh_k4_inj0.1_pkt4.cfg
topology = mesh;
k = 4;
n = 2;
routing_function = dor;
traffic = uniform;
packet_size = 4;
injection_rate = 0.1;
sim_count = 100000;
warmup_periods = 1000;

END Configuration File: /home/s65oh/booksim2/runfiles/mesh_k4_inj0.1_pkt4.cfg
Class 0:
Packet latency average = 27.2353
	minimum = 10
	maximum = 65
Network latency average = 26.236
	minimum = 10
	maximum = 62
Slowest packet = 1030
Flit latency average = 21.7031
	minimum = 7
	maximum = 59
Slowest flit = 4123
Fragmentation average = 3.01467
	minimum = 0
	maximum = 34
Injected packet rate average = 0.09575
	minimum = 0.077 (at node 2)
	maximum = 0.114 (at node 7)
Accepted packet rate average = 0.09375
	minimum = 0.078 (at node 3)
	maximum = 0.107 (at node 8)
Injected flit rate average = 0.382937
	minimum = 0.308 (at node 2)
	maximum = 0.456 (at node 7)
Accepted flit rate average= 0.375312
	minimum = 0.312 (at node 14)
	maximum = 0.428 (at node 8)
Injected packet length average = 3.99935
Accepted packet length average = 4.00333
Total in-flight flits = 123 (0 measured)
latency change    = 1
throughput change = 1
Class 0:
Packet latency average = 27.0982
	minimum = 10
	maximum = 74
Network latency average = 26.1109
	minimum = 10
	maximum = 71
Slowest packet = 2276
Flit latency average = 21.6866
	minimum = 7
	maximum = 68
Slowest flit = 9107
Fragmentation average = 2.78731
	minimum = 0
	maximum = 35
Injected packet rate average = 0.095
	minimum = 0.0845 (at node 2)
	maximum = 0.1135 (at node 7)
Accepted packet rate average = 0.0935938
	minimum = 0.0835 (at node 14)
	maximum = 0.101 (at node 12)
Injected flit rate average = 0.37975
	minimum = 0.3375 (at node 2)
	maximum = 0.454 (at node 7)
Accepted flit rate average= 0.374781
	minimum = 0.3355 (at node 14)
	maximum = 0.404 (at node 12)
Injected packet length average = 3.99737
Accepted packet length average = 4.00434
Total in-flight flits = 167 (0 measured)
latency change    = 0.00506196
throughput change = 0.00141749
Class 0:
Packet latency average = 27.76
	minimum = 10
	maximum = 86
Network latency average = 26.7016
	minimum = 10
	maximum = 82
Slowest packet = 3414
Flit latency average = 22.0649
	minimum = 7
	maximum = 79
Slowest flit = 13659
Fragmentation average = 3.25639
	minimum = 0
	maximum = 28
Injected packet rate average = 0.102813
	minimum = 0.073 (at node 2)
	maximum = 0.123 (at node 10)
Accepted packet rate average = 0.102625
	minimum = 0.09 (at node 4)
	maximum = 0.124 (at node 6)
Injected flit rate average = 0.411438
	minimum = 0.293 (at node 2)
	maximum = 0.492 (at node 10)
Accepted flit rate average= 0.4115
	minimum = 0.363 (at node 4)
	maximum = 0.497 (at node 6)
Injected packet length average = 4.00182
Accepted packet length average = 4.00974
Total in-flight flits = 163 (0 measured)
latency change    = 0.0238431
throughput change = 0.0892315
Class 0:
Packet latency average = 27.5307
	minimum = 10
	maximum = 86
Network latency average = 26.5224
	minimum = 10
	maximum = 82
Slowest packet = 3414
Flit latency average = 21.9262
	minimum = 7
	maximum = 79
Slowest flit = 13659
Fragmentation average = 3.12535
	minimum = 0
	maximum = 38
Injected packet rate average = 0.101156
	minimum = 0.088 (at node 2)
	maximum = 0.1155 (at node 10)
Accepted packet rate average = 0.101219
	minimum = 0.087 (at node 13)
	maximum = 0.1115 (at node 3)
Injected flit rate average = 0.4045
	minimum = 0.3515 (at node 2)
	maximum = 0.462 (at node 10)
Accepted flit rate average= 0.405062
	minimum = 0.348 (at node 13)
	maximum = 0.4445 (at node 1)
Injected packet length average = 3.99876
Accepted packet length average = 4.00185
Total in-flight flits = 153 (0 measured)
latency change    = 0.00832994
throughput change = 0.0158926
Class 0:
Packet latency average = 27.4337
	minimum = 10
	maximum = 72
Network latency average = 26.4211
	minimum = 10
	maximum = 65
Slowest packet = 6829
Flit latency average = 21.952
	minimum = 7
	maximum = 62
Slowest flit = 27319
Fragmentation average = 2.92708
	minimum = 0
	maximum = 29
Injected packet rate average = 0.099
	minimum = 0.088 (at node 3)
	maximum = 0.11 (at node 9)
Accepted packet rate average = 0.0985625
	minimum = 0.082 (at node 5)
	maximum = 0.118 (at node 11)
Injected flit rate average = 0.396188
	minimum = 0.352 (at node 3)
	maximum = 0.44 (at node 9)
Accepted flit rate average= 0.39475
	minimum = 0.323 (at node 5)
	maximum = 0.475 (at node 11)
Injected packet length average = 4.00189
Accepted packet length average = 4.00507
Total in-flight flits = 173 (0 measured)
latency change    = 0.00353522
throughput change = 0.0261241
Class 0:
Packet latency average = 27.4878
	minimum = 10
	maximum = 72
Network latency average = 26.4805
	minimum = 10
	maximum = 65
Slowest packet = 6829
Flit latency average = 21.9739
	minimum = 7
	maximum = 62
Slowest flit = 27319
Fragmentation average = 2.96736
	minimum = 0
	maximum = 29
Injected packet rate average = 0.0992813
	minimum = 0.084 (at node 3)
	maximum = 0.109 (at node 10)
Accepted packet rate average = 0.0995625
	minimum = 0.0875 (at node 4)
	maximum = 0.114 (at node 11)
Injected flit rate average = 0.397125
	minimum = 0.336 (at node 3)
	maximum = 0.4345 (at node 10)
Accepted flit rate average= 0.398125
	minimum = 0.35 (at node 4)
	maximum = 0.456 (at node 11)
Injected packet length average = 4
Accepted packet length average = 3.99874
Total in-flight flits = 121 (0 measured)
latency change    = 0.00196538
throughput change = 0.00847724
Class 0:
Packet latency average = 28.0578
	minimum = 10
	maximum = 79
Network latency average = 26.9391
	minimum = 10
	maximum = 75
Slowest packet = 9574
Flit latency average = 22.211
	minimum = 7
	maximum = 72
Slowest flit = 38443
Fragmentation average = 3.37065
	minimum = 0
	maximum = 41
Injected packet rate average = 0.100937
	minimum = 0.08 (at node 14)
	maximum = 0.117 (at node 3)
Accepted packet rate average = 0.1005
	minimum = 0.083 (at node 9)
	maximum = 0.118 (at node 7)
Injected flit rate average = 0.403687
	minimum = 0.322 (at node 14)
	maximum = 0.466 (at node 3)
Accepted flit rate average= 0.401938
	minimum = 0.332 (at node 9)
	maximum = 0.47 (at node 7)
Injected packet length average = 3.99938
Accepted packet length average = 3.99938
Total in-flight flits = 150 (0 measured)
latency change    = 0.0203179
throughput change = 0.00948531
Class 0:
Packet latency average = 28.1965
	minimum = 10
	maximum = 81
Network latency average = 27.1229
	minimum = 10
	maximum = 81
Slowest packet = 12025
Flit latency average = 22.3411
	minimum = 7
	maximum = 78
Slowest flit = 48103
Fragmentation average = 3.49628
	minimum = 0
	maximum = 41
Injected packet rate average = 0.10075
	minimum = 0.088 (at node 14)
	maximum = 0.11 (at node 2)
Accepted packet rate average = 0.100687
	minimum = 0.0825 (at node 4)
	maximum = 0.1095 (at node 2)
Injected flit rate average = 0.402938
	minimum = 0.3535 (at node 14)
	maximum = 0.44 (at node 2)
Accepted flit rate average= 0.402594
	minimum = 0.33 (at node 4)
	maximum = 0.438 (at node 2)
Injected packet length average = 3.99938
Accepted packet length average = 3.99845
Total in-flight flits = 134 (0 measured)
latency change    = 0.00491643
throughput change = 0.00163006
Class 0:
Packet latency average = 27.1952
	minimum = 10
	maximum = 74
Network latency average = 26.2889
	minimum = 10
	maximum = 71
Slowest packet = 13776
Flit latency average = 21.7356
	minimum = 7
	maximum = 68
Slowest flit = 55107
Fragmentation average = 3.04719
	minimum = 0
	maximum = 32
Injected packet rate average = 0.0979375
	minimum = 0.081 (at node 6)
	maximum = 0.112 (at node 7)
Accepted packet rate average = 0.098
	minimum = 0.076 (at node 2)
	maximum = 0.119 (at node 10)
Injected flit rate average = 0.392375
	minimum = 0.324 (at node 6)
	maximum = 0.449 (at node 7)
Accepted flit rate average= 0.392625
	minimum = 0.31 (at node 2)
	maximum = 0.474 (at node 10)
Injected packet length average = 4.00638
Accepted packet length average = 4.00638
Total in-flight flits = 120 (0 measured)
latency change    = 0.0368194
throughput change = 0.02539
Class 0:
Packet latency average = 27.1257
	minimum = 10
	maximum = 74
Network latency average = 26.2157
	minimum = 10
	maximum = 71
Slowest packet = 13776
Flit latency average = 21.7612
	minimum = 7
	maximum = 68
Slowest flit = 55107
Fragmentation average = 2.8454
	minimum = 0
	maximum = 32
Injected packet rate average = 0.0963125
	minimum = 0.0865 (at node 6)
	maximum = 0.106 (at node 11)
Accepted packet rate average = 0.0962188
	minimum = 0.085 (at node 2)
	maximum = 0.108 (at node 13)
Injected flit rate average = 0.385406
	minimum = 0.346 (at node 6)
	maximum = 0.4255 (at node 11)
Accepted flit rate average= 0.385
	minimum = 0.34 (at node 2)
	maximum = 0.432 (at node 13)
Injected packet length average = 4.00162
Accepted packet length average = 4.0013
Total in-flight flits = 142 (0 measured)
latency change    = 0.00256078
throughput change = 0.0198052
Too many sample periods needed to converge
Simulation unstable, ending ...
Total run time 0.325582
