BEGIN Configuration File: /home/s65oh/booksim2/runfiles/mesh_k4_inj0.1_pkt8.cfg
topology = mesh;
k = 4;
n = 2;
routing_function = dor;
traffic = uniform;
packet_size = 8;
injection_rate = 0.1;
sim_count = 100000;
warmup_periods = 1000;

END Configuration File: /home/s65oh/booksim2/runfiles/mesh_k4_inj0.1_pkt8.cfg
Class 0:
Packet latency average = 78.8725
	minimum = 14
	maximum = 343
Network latency average = 69.9359
	minimum = 14
	maximum = 343
Slowest packet = 915
Flit latency average = 48.898
	minimum = 7
	maximum = 336
Slowest flit = 7327
Fragmentation average = 29.9083
	minimum = 0
	maximum = 201
Injected packet rate average = 0.0945625
	minimum = 0.082 (at node 5)
	maximum = 0.114 (at node 3)
Accepted packet rate average = 0.0838125
	minimum = 0.071 (at node 14)
	maximum = 0.093 (at node 4)
Injected flit rate average = 0.753938
	minimum = 0.652 (at node 5)
	maximum = 0.908 (at node 3)
Accepted flit rate average= 0.691625
	minimum = 0.586 (at node 14)
	maximum = 0.769 (at node 12)
Injected packet length average = 7.9729
Accepted packet length average = 8.25205
Total in-flight flits = 1038 (0 measured)
latency change    = 1
throughput change = 1
Class 0:
Packet latency average = 107.616
	minimum = 14
	maximum = 663
Network latency average = 89.9135
	minimum = 14
	maximum = 663
Slowest packet = 1826
Flit latency average = 62.6613
	minimum = 7
	maximum = 656
Slowest flit = 14615
Fragmentation average = 41.3702
	minimum = 0
	maximum = 442
Injected packet rate average = 0.0932188
	minimum = 0.085 (at node 5)
	maximum = 0.099 (at node 13)
Accepted packet rate average = 0.0877813
	minimum = 0.078 (at node 14)
	maximum = 0.0975 (at node 12)
Injected flit rate average = 0.744062
	minimum = 0.677 (at node 5)
	maximum = 0.7905 (at node 13)
Accepted flit rate average= 0.714156
	minimum = 0.6355 (at node 14)
	maximum = 0.7885 (at node 12)
Injected packet length average = 7.9819
Accepted packet length average = 8.13564
Total in-flight flits = 1011 (0 measured)
latency change    = 0.26709
throughput change = 0.0315495
Class 0:
Packet latency average = 190.511
	minimum = 16
	maximum = 847
Network latency average = 118.26
	minimum = 16
	maximum = 794
Slowest packet = 2796
Flit latency average = 84.147
	minimum = 7
	maximum = 787
Slowest flit = 22375
Fragmentation average = 54.1312
	minimum = 0
	maximum = 627
Injected packet rate average = 0.0923125
	minimum = 0.07 (at node 9)
	maximum = 0.109 (at node 8)
Accepted packet rate average = 0.091
	minimum = 0.078 (at node 4)
	maximum = 0.103 (at node 3)
Injected flit rate average = 0.73875
	minimum = 0.56 (at node 9)
	maximum = 0.876 (at node 8)
Accepted flit rate average= 0.73075
	minimum = 0.639 (at node 4)
	maximum = 0.86 (at node 6)
Injected packet length average = 8.00271
Accepted packet length average = 8.03022
Total in-flight flits = 1135 (0 measured)
latency change    = 0.435122
throughput change = 0.0227078
Class 0:
Packet latency average = 237.628
	minimum = 16
	maximum = 1059
Network latency average = 123.993
	minimum = 16
	maximum = 1057
Slowest packet = 3790
Flit latency average = 89.0555
	minimum = 7
	maximum = 1050
Slowest flit = 30327
Fragmentation average = 56.9615
	minimum = 0
	maximum = 817
Injected packet rate average = 0.093125
	minimum = 0.069 (at node 15)
	maximum = 0.1045 (at node 8)
Accepted packet rate average = 0.0924375
	minimum = 0.0805 (at node 4)
	maximum = 0.1025 (at node 3)
Injected flit rate average = 0.7445
	minimum = 0.551 (at node 15)
	maximum = 0.8345 (at node 8)
Accepted flit rate average= 0.739313
	minimum = 0.6455 (at node 13)
	maximum = 0.817 (at node 1)
Injected packet length average = 7.99463
Accepted packet length average = 7.99797
Total in-flight flits = 1193 (0 measured)
latency change    = 0.198282
throughput change = 0.0115817
Class 0:
Packet latency average = 336.496
	minimum = 23
	maximum = 1153
Network latency average = 145.662
	minimum = 20
	maximum = 748
Slowest packet = 5704
Flit latency average = 108.268
	minimum = 7
	maximum = 741
Slowest flit = 49391
Fragmentation average = 64.5651
	minimum = 0
	maximum = 535
Injected packet rate average = 0.0945625
	minimum = 0.076 (at node 0)
	maximum = 0.109 (at node 1)
Accepted packet rate average = 0.09125
	minimum = 0.077 (at node 4)
	maximum = 0.103 (at node 2)
Injected flit rate average = 0.757062
	minimum = 0.611 (at node 0)
	maximum = 0.871 (at node 1)
Accepted flit rate average= 0.737563
	minimum = 0.642 (at node 4)
	maximum = 0.839 (at node 8)
Injected packet length average = 8.00595
Accepted packet length average = 8.08288
Total in-flight flits = 1496 (0 measured)
latency change    = 0.293815
throughput change = 0.00237268
Class 0:
Packet latency average = 372.108
	minimum = 22
	maximum = 1264
Network latency average = 153.413
	minimum = 20
	maximum = 912
Slowest packet = 5704
Flit latency average = 114.91
	minimum = 7
	maximum = 905
Slowest flit = 52703
Fragmentation average = 64.2734
	minimum = 0
	maximum = 692
Injected packet rate average = 0.0940938
	minimum = 0.079 (at node 15)
	maximum = 0.105 (at node 14)
Accepted packet rate average = 0.0930312
	minimum = 0.078 (at node 4)
	maximum = 0.1035 (at node 8)
Injected flit rate average = 0.753219
	minimum = 0.6325 (at node 15)
	maximum = 0.84 (at node 14)
Accepted flit rate average= 0.746719
	minimum = 0.6255 (at node 4)
	maximum = 0.835 (at node 8)
Injected packet length average = 8.00498
Accepted packet length average = 8.02654
Total in-flight flits = 1386 (0 measured)
latency change    = 0.0957033
throughput change = 0.012262
Class 0:
Packet latency average = 457.482
	minimum = 16
	maximum = 1499
Network latency average = 141.801
	minimum = 16
	maximum = 821
Slowest packet = 8732
Flit latency average = 103.148
	minimum = 7
	maximum = 814
Slowest flit = 62639
Fragmentation average = 63.7731
	minimum = 2
	maximum = 501
Injected packet rate average = 0.0938125
	minimum = 0.082 (at node 1)
	maximum = 0.115 (at node 15)
Accepted packet rate average = 0.096125
	minimum = 0.083 (at node 9)
	maximum = 0.105 (at node 0)
Injected flit rate average = 0.751938
	minimum = 0.66 (at node 1)
	maximum = 0.92 (at node 15)
Accepted flit rate average= 0.765375
	minimum = 0.672 (at node 9)
	maximum = 0.845 (at node 7)
Injected packet length average = 8.01532
Accepted packet length average = 7.96229
Total in-flight flits = 1148 (0 measured)
latency change    = 0.186618
throughput change = 0.0243753
Class 0:
Packet latency average = 495.102
	minimum = 16
	maximum = 1549
Network latency average = 147.453
	minimum = 16
	maximum = 987
Slowest packet = 8732
Flit latency average = 109.407
	minimum = 7
	maximum = 980
Slowest flit = 81887
Fragmentation average = 63.6765
	minimum = 1
	maximum = 633
Injected packet rate average = 0.0953125
	minimum = 0.076 (at node 4)
	maximum = 0.1135 (at node 15)
Accepted packet rate average = 0.0954375
	minimum = 0.0825 (at node 4)
	maximum = 0.105 (at node 3)
Injected flit rate average = 0.76325
	minimum = 0.6085 (at node 4)
	maximum = 0.908 (at node 15)
Accepted flit rate average= 0.760094
	minimum = 0.6595 (at node 4)
	maximum = 0.835 (at node 3)
Injected packet length average = 8.00787
Accepted packet length average = 7.96431
Total in-flight flits = 1463 (0 measured)
latency change    = 0.0759837
throughput change = 0.00694816
Class 0:
Packet latency average = 573.188
	minimum = 22
	maximum = 1485
Network latency average = 153.667
	minimum = 21
	maximum = 789
Slowest packet = 11292
Flit latency average = 114.501
	minimum = 7
	maximum = 782
Slowest flit = 94359
Fragmentation average = 65.2321
	minimum = 0
	maximum = 477
Injected packet rate average = 0.092625
	minimum = 0.077 (at node 1)
	maximum = 0.107 (at node 7)
Accepted packet rate average = 0.0931875
	minimum = 0.077 (at node 4)
	maximum = 0.112 (at node 0)
Injected flit rate average = 0.739437
	minimum = 0.615 (at node 1)
	maximum = 0.853 (at node 7)
Accepted flit rate average= 0.746625
	minimum = 0.619 (at node 4)
	maximum = 0.873 (at node 0)
Injected packet length average = 7.98313
Accepted packet length average = 8.01207
Total in-flight flits = 1373 (0 measured)
latency change    = 0.13623
throughput change = 0.0180395
Average latency for class 0 exceeded 500 cycles. Aborting simulation.
Too many sample periods needed to converge
Simulation unstable, ending ...
Total run time 0.517778
