BEGIN Configuration File: /home/s65oh/booksim2/runfiles/mesh_k3_inj0.1_pkt4.cfg
topology = mesh;
k = 3;
n = 2;
routing_function = dor;
traffic = uniform;
packet_size = 4;
injection_rate = 0.1;
sim_count = 100000;
warmup_periods = 1000;

END Configuration File: /home/s65oh/booksim2/runfiles/mesh_k3_inj0.1_pkt4.cfg
Class 0:
Packet latency average = 22.0479
	minimum = 10
	maximum = 42
Network latency average = 21.2368
	minimum = 10
	maximum = 39
Slowest packet = 13
Flit latency average = 17.221
	minimum = 7
	maximum = 36
Slowest flit = 55
Fragmentation average = 2.00123
	minimum = 0
	maximum = 17
Injected packet rate average = 0.0927778
	minimum = 0.083 (at node 1)
	maximum = 0.107 (at node 7)
Accepted packet rate average = 0.0905556
	minimum = 0.086 (at node 8)
	maximum = 0.1 (at node 2)
Injected flit rate average = 0.371
	minimum = 0.332 (at node 1)
	maximum = 0.428 (at node 7)
Accepted flit rate average= 0.363
	minimum = 0.344 (at node 8)
	maximum = 0.402 (at node 2)
Injected packet length average = 3.9988
Accepted packet length average = 4.00859
Total in-flight flits = 73 (0 measured)
latency change    = 1
throughput change = 1
Class 0:
Packet latency average = 22.5227
	minimum = 10
	maximum = 48
Network latency average = 21.5604
	minimum = 10
	maximum = 48
Slowest packet = 1236
Flit latency average = 17.4327
	minimum = 7
	maximum = 45
Slowest flit = 4947
Fragmentation average = 2.2416
	minimum = 0
	maximum = 18
Injected packet rate average = 0.0951111
	minimum = 0.0855 (at node 3)
	maximum = 0.102 (at node 4)
Accepted packet rate average = 0.0942778
	minimum = 0.0865 (at node 1)
	maximum = 0.1015 (at node 7)
Injected flit rate average = 0.380389
	minimum = 0.3415 (at node 3)
	maximum = 0.408 (at node 4)
Accepted flit rate average= 0.377611
	minimum = 0.346 (at node 1)
	maximum = 0.4065 (at node 7)
Injected packet length average = 3.99942
Accepted packet length average = 4.0053
Total in-flight flits = 51 (0 measured)
latency change    = 0.0210825
throughput change = 0.0386935
Class 0:
Packet latency average = 22.9606
	minimum = 10
	maximum = 48
Network latency average = 21.942
	minimum = 10
	maximum = 47
Slowest packet = 2071
Flit latency average = 17.8271
	minimum = 7
	maximum = 44
Slowest flit = 9079
Fragmentation average = 2.19954
	minimum = 0
	maximum = 20
Injected packet rate average = 0.0958889
	minimum = 0.088 (at node 5)
	maximum = 0.108 (at node 0)
Accepted packet rate average = 0.0957778
	minimum = 0.086 (at node 3)
	maximum = 0.11 (at node 5)
Injected flit rate average = 0.383
	minimum = 0.351 (at node 5)
	maximum = 0.432 (at node 0)
Accepted flit rate average= 0.383111
	minimum = 0.344 (at node 3)
	maximum = 0.44 (at node 5)
Injected packet length average = 3.99421
Accepted packet length average = 4
Total in-flight flits = 55 (0 measured)
latency change    = 0.0190705
throughput change = 0.0143561
Class 0:
Packet latency average = 22.8402
	minimum = 10
	maximum = 49
Network latency average = 21.9198
	minimum = 10
	maximum = 47
Slowest packet = 2071
Flit latency average = 17.776
	minimum = 7
	maximum = 44
Slowest flit = 9079
Fragmentation average = 2.28408
	minimum = 0
	maximum = 20
Injected packet rate average = 0.0975
	minimum = 0.0925 (at node 5)
	maximum = 0.1075 (at node 2)
Accepted packet rate average = 0.097
	minimum = 0.088 (at node 0)
	maximum = 0.109 (at node 7)
Injected flit rate average = 0.389611
	minimum = 0.369 (at node 6)
	maximum = 0.43 (at node 2)
Accepted flit rate average= 0.387722
	minimum = 0.352 (at node 0)
	maximum = 0.4355 (at node 7)
Injected packet length average = 3.99601
Accepted packet length average = 3.99714
Total in-flight flits = 92 (0 measured)
latency change    = 0.00526925
throughput change = 0.0118928
Class 0:
Packet latency average = 22.9836
	minimum = 10
	maximum = 61
Network latency average = 22.1173
	minimum = 10
	maximum = 59
Slowest packet = 3691
Flit latency average = 17.8627
	minimum = 7
	maximum = 56
Slowest flit = 14767
Fragmentation average = 2.48246
	minimum = 0
	maximum = 30
Injected packet rate average = 0.101111
	minimum = 0.09 (at node 6)
	maximum = 0.105 (at node 0)
Accepted packet rate average = 0.101333
	minimum = 0.084 (at node 1)
	maximum = 0.123 (at node 8)
Injected flit rate average = 0.404333
	minimum = 0.362 (at node 6)
	maximum = 0.42 (at node 8)
Accepted flit rate average= 0.407
	minimum = 0.337 (at node 4)
	maximum = 0.492 (at node 8)
Injected packet length average = 3.9989
Accepted packet length average = 4.01645
Total in-flight flits = 69 (0 measured)
latency change    = 0.00623691
throughput change = 0.0473655
Class 0:
Packet latency average = 22.7497
	minimum = 10
	maximum = 61
Network latency average = 21.7656
	minimum = 10
	maximum = 59
Slowest packet = 3691
Flit latency average = 17.5714
	minimum = 7
	maximum = 56
Slowest flit = 14767
Fragmentation average = 2.36802
	minimum = 0
	maximum = 30
Injected packet rate average = 0.101222
	minimum = 0.091 (at node 6)
	maximum = 0.106 (at node 3)
Accepted packet rate average = 0.101444
	minimum = 0.091 (at node 1)
	maximum = 0.111 (at node 7)
Injected flit rate average = 0.404778
	minimum = 0.365 (at node 6)
	maximum = 0.424 (at node 3)
Accepted flit rate average= 0.406
	minimum = 0.364 (at node 1)
	maximum = 0.4455 (at node 7)
Injected packet length average = 3.9989
Accepted packet length average = 4.00219
Total in-flight flits = 72 (0 measured)
latency change    = 0.0102782
throughput change = 0.00246305
Class 0:
Packet latency average = 22.1243
	minimum = 10
	maximum = 45
Network latency average = 21.2192
	minimum = 10
	maximum = 41
Slowest packet = 5504
Flit latency average = 17.188
	minimum = 7
	maximum = 38
Slowest flit = 22019
Fragmentation average = 2.01695
	minimum = 0
	maximum = 14
Injected packet rate average = 0.0986667
	minimum = 0.09 (at node 4)
	maximum = 0.107 (at node 1)
Accepted packet rate average = 0.0983333
	minimum = 0.086 (at node 0)
	maximum = 0.107 (at node 2)
Injected flit rate average = 0.395
	minimum = 0.36 (at node 4)
	maximum = 0.428 (at node 1)
Accepted flit rate average= 0.394778
	minimum = 0.344 (at node 0)
	maximum = 0.433 (at node 2)
Injected packet length average = 4.00338
Accepted packet length average = 4.01469
Total in-flight flits = 71 (0 measured)
latency change    = 0.028269
throughput change = 0.0284267
Class 0:
Packet latency average = 22.4705
	minimum = 10
	maximum = 54
Network latency average = 21.5596
	minimum = 10
	maximum = 49
Slowest packet = 6451
Flit latency average = 17.4565
	minimum = 7
	maximum = 46
Slowest flit = 25807
Fragmentation average = 2.16913
	minimum = 0
	maximum = 24
Injected packet rate average = 0.0976667
	minimum = 0.0905 (at node 4)
	maximum = 0.1055 (at node 5)
Accepted packet rate average = 0.0978889
	minimum = 0.0855 (at node 0)
	maximum = 0.1115 (at node 2)
Injected flit rate average = 0.391222
	minimum = 0.362 (at node 4)
	maximum = 0.4235 (at node 5)
Accepted flit rate average= 0.391389
	minimum = 0.342 (at node 0)
	maximum = 0.446 (at node 2)
Injected packet length average = 4.00569
Accepted packet length average = 3.9983
Total in-flight flits = 59 (0 measured)
latency change    = 0.0154066
throughput change = 0.00865862
Class 0:
Packet latency average = 23.7174
	minimum = 10
	maximum = 61
Network latency average = 22.7272
	minimum = 10
	maximum = 60
Slowest packet = 7080
Flit latency average = 18.3153
	minimum = 7
	maximum = 57
Slowest flit = 28323
Fragmentation average = 2.83913
	minimum = 0
	maximum = 24
Injected packet rate average = 0.102111
	minimum = 0.085 (at node 4)
	maximum = 0.122 (at node 8)
Accepted packet rate average = 0.102222
	minimum = 0.093 (at node 8)
	maximum = 0.115 (at node 3)
Injected flit rate average = 0.407889
	minimum = 0.34 (at node 4)
	maximum = 0.486 (at node 8)
Accepted flit rate average= 0.409111
	minimum = 0.372 (at node 8)
	maximum = 0.463 (at node 3)
Injected packet length average = 3.99456
Accepted packet length average = 4.00217
Total in-flight flits = 53 (0 measured)
latency change    = 0.0525734
throughput change = 0.0433188
Class 0:
Packet latency average = 23.1004
	minimum = 10
	maximum = 61
Network latency average = 22.0654
	minimum = 10
	maximum = 60
Slowest packet = 7080
Flit latency average = 17.844
	minimum = 7
	maximum = 57
Slowest flit = 28323
Fragmentation average = 2.46644
	minimum = 0
	maximum = 24
Injected packet rate average = 0.100667
	minimum = 0.089 (at node 4)
	maximum = 0.1115 (at node 8)
Accepted packet rate average = 0.100167
	minimum = 0.095 (at node 5)
	maximum = 0.1125 (at node 3)
Injected flit rate average = 0.402278
	minimum = 0.356 (at node 4)
	maximum = 0.446 (at node 8)
Accepted flit rate average= 0.401111
	minimum = 0.381 (at node 5)
	maximum = 0.4515 (at node 3)
Injected packet length average = 3.99614
Accepted packet length average = 4.00444
Total in-flight flits = 87 (0 measured)
latency change    = 0.0267096
throughput change = 0.0199446
Too many sample periods needed to converge
Simulation unstable, ending ...
Total run time 0.142521
