BEGIN Configuration File: /home/s65oh/booksim2/runfiles/mesh_k6_inj0.1_pkt4.cfg
topology = mesh;
k = 6;
n = 2;
routing_function = dor;
traffic = uniform;
packet_size = 4;
injection_rate = 0.1;
sim_count = 100000;
warmup_periods = 1000;

END Configuration File: /home/s65oh/booksim2/runfiles/mesh_k6_inj0.1_pkt4.cfg
Class 0:
Packet latency average = 38.2277
	minimum = 10
	maximum = 136
Network latency average = 37.2601
	minimum = 10
	maximum = 135
Slowest packet = 2236
Flit latency average = 31.6367
	minimum = 7
	maximum = 132
Slowest flit = 8947
Fragmentation average = 4.99153
	minimum = 0
	maximum = 54
Injected packet rate average = 0.0961667
	minimum = 0.075 (at node 31)
	maximum = 0.128 (at node 29)
Accepted packet rate average = 0.0918611
	minimum = 0.075 (at node 13)
	maximum = 0.118 (at node 25)
Injected flit rate average = 0.383806
	minimum = 0.298 (at node 31)
	maximum = 0.51 (at node 29)
Accepted flit rate average= 0.3695
	minimum = 0.302 (at node 13)
	maximum = 0.472 (at node 25)
Injected packet length average = 3.99105
Accepted packet length average = 4.02238
Total in-flight flits = 546 (0 measured)
latency change    = 1
throughput change = 1
Class 0:
Packet latency average = 39.0661
	minimum = 10
	maximum = 136
Network latency average = 38.0616
	minimum = 10
	maximum = 135
Slowest packet = 2236
Flit latency average = 32.1888
	minimum = 7
	maximum = 132
Slowest flit = 8947
Fragmentation average = 5.46738
	minimum = 0
	maximum = 58
Injected packet rate average = 0.0978333
	minimum = 0.085 (at node 5)
	maximum = 0.112 (at node 6)
Accepted packet rate average = 0.0958056
	minimum = 0.084 (at node 13)
	maximum = 0.1135 (at node 25)
Injected flit rate average = 0.391111
	minimum = 0.339 (at node 5)
	maximum = 0.448 (at node 6)
Accepted flit rate average= 0.384194
	minimum = 0.336 (at node 13)
	maximum = 0.454 (at node 25)
Injected packet length average = 3.99773
Accepted packet length average = 4.01015
Total in-flight flits = 514 (0 measured)
latency change    = 0.0214612
throughput change = 0.0382474
Class 0:
Packet latency average = 40.6837
	minimum = 10
	maximum = 153
Network latency average = 39.6219
	minimum = 10
	maximum = 153
Slowest packet = 8806
Flit latency average = 33.245
	minimum = 7
	maximum = 150
Slowest flit = 35227
Fragmentation average = 6.46831
	minimum = 0
	maximum = 93
Injected packet rate average = 0.101
	minimum = 0.081 (at node 5)
	maximum = 0.127 (at node 22)
Accepted packet rate average = 0.10125
	minimum = 0.083 (at node 17)
	maximum = 0.126 (at node 3)
Injected flit rate average = 0.403833
	minimum = 0.322 (at node 13)
	maximum = 0.508 (at node 22)
Accepted flit rate average= 0.404806
	minimum = 0.332 (at node 17)
	maximum = 0.5 (at node 3)
Injected packet length average = 3.99835
Accepted packet length average = 3.99808
Total in-flight flits = 485 (0 measured)
latency change    = 0.0397597
throughput change = 0.0509161
Class 0:
Packet latency average = 40.1842
	minimum = 10
	maximum = 153
Network latency average = 39.1907
	minimum = 10
	maximum = 153
Slowest packet = 8806
Flit latency average = 32.9783
	minimum = 7
	maximum = 150
Slowest flit = 35227
Fragmentation average = 6.13449
	minimum = 0
	maximum = 93
Injected packet rate average = 0.1
	minimum = 0.0885 (at node 0)
	maximum = 0.115 (at node 23)
Accepted packet rate average = 0.100069
	minimum = 0.0865 (at node 17)
	maximum = 0.1155 (at node 30)
Injected flit rate average = 0.399958
	minimum = 0.353 (at node 0)
	maximum = 0.4605 (at node 23)
Accepted flit rate average= 0.400375
	minimum = 0.3495 (at node 28)
	maximum = 0.46 (at node 30)
Injected packet length average = 3.99958
Accepted packet length average = 4.00097
Total in-flight flits = 487 (0 measured)
latency change    = 0.0124302
throughput change = 0.011066
Class 0:
Packet latency average = 39.0998
	minimum = 10
	maximum = 145
Network latency average = 38.1289
	minimum = 10
	maximum = 144
Slowest packet = 16788
Flit latency average = 32.1943
	minimum = 7
	maximum = 141
Slowest flit = 67155
Fragmentation average = 5.50342
	minimum = 0
	maximum = 101
Injected packet rate average = 0.097
	minimum = 0.083 (at node 13)
	maximum = 0.117 (at node 7)
Accepted packet rate average = 0.0973889
	minimum = 0.077 (at node 27)
	maximum = 0.117 (at node 31)
Injected flit rate average = 0.387944
	minimum = 0.332 (at node 13)
	maximum = 0.468 (at node 7)
Accepted flit rate average= 0.388778
	minimum = 0.314 (at node 14)
	maximum = 0.467 (at node 33)
Injected packet length average = 3.99943
Accepted packet length average = 3.99201
Total in-flight flits = 459 (0 measured)
latency change    = 0.0277328
throughput change = 0.02983
Class 0:
Packet latency average = 39.9572
	minimum = 10
	maximum = 145
Network latency average = 38.9482
	minimum = 10
	maximum = 144
Slowest packet = 16788
Flit latency average = 32.8259
	minimum = 7
	maximum = 141
Slowest flit = 67155
Fragmentation average = 5.96474
	minimum = 0
	maximum = 101
Injected packet rate average = 0.0995694
	minimum = 0.088 (at node 3)
	maximum = 0.115 (at node 0)
Accepted packet rate average = 0.0992639
	minimum = 0.0885 (at node 14)
	maximum = 0.1145 (at node 3)
Injected flit rate average = 0.398097
	minimum = 0.351 (at node 3)
	maximum = 0.461 (at node 0)
Accepted flit rate average= 0.397153
	minimum = 0.3545 (at node 14)
	maximum = 0.459 (at node 33)
Injected packet length average = 3.99819
Accepted packet length average = 4.00098
Total in-flight flits = 568 (0 measured)
latency change    = 0.0214569
throughput change = 0.0210876
Class 0:
Packet latency average = 39.5651
	minimum = 10
	maximum = 156
Network latency average = 38.5516
	minimum = 10
	maximum = 153
Slowest packet = 21031
Flit latency average = 32.6536
	minimum = 7
	maximum = 150
Slowest flit = 84127
Fragmentation average = 5.49314
	minimum = 0
	maximum = 54
Injected packet rate average = 0.09825
	minimum = 0.086 (at node 1)
	maximum = 0.119 (at node 34)
Accepted packet rate average = 0.09925
	minimum = 0.08 (at node 22)
	maximum = 0.114 (at node 1)
Injected flit rate average = 0.393389
	minimum = 0.342 (at node 20)
	maximum = 0.473 (at node 34)
Accepted flit rate average= 0.395944
	minimum = 0.322 (at node 22)
	maximum = 0.452 (at node 1)
Injected packet length average = 4.00396
Accepted packet length average = 3.98936
Total in-flight flits = 462 (0 measured)
latency change    = 0.0099106
throughput change = 0.00305177
Class 0:
Packet latency average = 39.4719
	minimum = 10
	maximum = 156
Network latency average = 38.4834
	minimum = 10
	maximum = 155
Slowest packet = 21031
Flit latency average = 32.5156
	minimum = 7
	maximum = 152
Slowest flit = 108791
Fragmentation average = 5.63782
	minimum = 0
	maximum = 95
Injected packet rate average = 0.0986667
	minimum = 0.0885 (at node 4)
	maximum = 0.1115 (at node 29)
Accepted packet rate average = 0.0990139
	minimum = 0.082 (at node 22)
	maximum = 0.113 (at node 19)
Injected flit rate average = 0.394889
	minimum = 0.354 (at node 4)
	maximum = 0.4475 (at node 29)
Accepted flit rate average= 0.395667
	minimum = 0.3285 (at node 22)
	maximum = 0.4515 (at node 19)
Injected packet length average = 4.00225
Accepted packet length average = 3.99607
Total in-flight flits = 496 (0 measured)
latency change    = 0.00236107
throughput change = 0.00070205
Class 0:
Packet latency average = 40.3087
	minimum = 10
	maximum = 191
Network latency average = 39.3222
	minimum = 10
	maximum = 190
Slowest packet = 28523
Flit latency average = 33.1067
	minimum = 7
	maximum = 187
Slowest flit = 114095
Fragmentation average = 6.07013
	minimum = 0
	maximum = 69
Injected packet rate average = 0.100556
	minimum = 0.078 (at node 21)
	maximum = 0.124 (at node 3)
Accepted packet rate average = 0.100611
	minimum = 0.077 (at node 5)
	maximum = 0.12 (at node 22)
Injected flit rate average = 0.402222
	minimum = 0.311 (at node 21)
	maximum = 0.497 (at node 3)
Accepted flit rate average= 0.402667
	minimum = 0.308 (at node 5)
	maximum = 0.482 (at node 22)
Injected packet length average = 4
Accepted packet length average = 4.00221
Total in-flight flits = 480 (0 measured)
latency change    = 0.0207596
throughput change = 0.0173841
Class 0:
Packet latency average = 40.7977
	minimum = 10
	maximum = 191
Network latency average = 39.8154
	minimum = 10
	maximum = 190
Slowest packet = 28523
Flit latency average = 33.4918
	minimum = 7
	maximum = 187
Slowest flit = 114095
Fragmentation average = 6.31488
	minimum = 0
	maximum = 83
Injected packet rate average = 0.100958
	minimum = 0.0865 (at node 15)
	maximum = 0.121 (at node 18)
Accepted packet rate average = 0.100875
	minimum = 0.0835 (at node 6)
	maximum = 0.1215 (at node 18)
Injected flit rate average = 0.403972
	minimum = 0.346 (at node 15)
	maximum = 0.485 (at node 18)
Accepted flit rate average= 0.403653
	minimum = 0.334 (at node 6)
	maximum = 0.4835 (at node 18)
Injected packet length average = 4.00138
Accepted packet length average = 4.00151
Total in-flight flits = 509 (0 measured)
latency change    = 0.0119877
throughput change = 0.00244297
Too many sample periods needed to converge
Simulation unstable, ending ...
Total run time 1.0337
