BEGIN Configuration File: /home/s65oh/booksim2/runfiles/mesh_k5_inj0.15_pkt4.cfg
topology = mesh;
k = 5;
n = 2;
routing_function = dor;
traffic = uniform;
packet_size = 4;
injection_rate = 0.15;
sim_count = 100000;
warmup_periods = 1000;

END Configuration File: /home/s65oh/booksim2/runfiles/mesh_k5_inj0.15_pkt4.cfg
Class 0:
Packet latency average = 52.1969
	minimum = 10
	maximum = 296
Network latency average = 50.1117
	minimum = 10
	maximum = 296
Slowest packet = 2227
Flit latency average = 40.8623
	minimum = 7
	maximum = 293
Slowest flit = 8911
Fragmentation average = 12.326
	minimum = 0
	maximum = 159
Injected packet rate average = 0.14564
	minimum = 0.126 (at node 19)
	maximum = 0.169 (at node 9)
Accepted packet rate average = 0.13716
	minimum = 0.119 (at node 18)
	maximum = 0.165 (at node 5)
Injected flit rate average = 0.58176
	minimum = 0.503 (at node 19)
	maximum = 0.674 (at node 9)
Accepted flit rate average= 0.55404
	minimum = 0.476 (at node 18)
	maximum = 0.665 (at node 5)
Injected packet length average = 3.99451
Accepted packet length average = 4.03937
Total in-flight flits = 713 (0 measured)
latency change    = 1
throughput change = 1
Class 0:
Packet latency average = 56.2786
	minimum = 10
	maximum = 367
Network latency average = 54.1474
	minimum = 10
	maximum = 367
Slowest packet = 5656
Flit latency average = 44.3401
	minimum = 7
	maximum = 364
Slowest flit = 22627
Fragmentation average = 13.6686
	minimum = 0
	maximum = 231
Injected packet rate average = 0.14738
	minimum = 0.1335 (at node 4)
	maximum = 0.1715 (at node 14)
Accepted packet rate average = 0.14208
	minimum = 0.123 (at node 9)
	maximum = 0.167 (at node 24)
Injected flit rate average = 0.58922
	minimum = 0.534 (at node 4)
	maximum = 0.686 (at node 14)
Accepted flit rate average= 0.57166
	minimum = 0.4925 (at node 9)
	maximum = 0.671 (at node 24)
Injected packet length average = 3.99796
Accepted packet length average = 4.02351
Total in-flight flits = 893 (0 measured)
latency change    = 0.0725272
throughput change = 0.0308225
Class 0:
Packet latency average = 64.458
	minimum = 10
	maximum = 401
Network latency average = 62.3339
	minimum = 10
	maximum = 400
Slowest packet = 6611
Flit latency average = 51.0188
	minimum = 7
	maximum = 397
Slowest flit = 26447
Fragmentation average = 15.9871
	minimum = 0
	maximum = 184
Injected packet rate average = 0.14792
	minimum = 0.128 (at node 11)
	maximum = 0.17 (at node 1)
Accepted packet rate average = 0.14916
	minimum = 0.119 (at node 18)
	maximum = 0.173 (at node 21)
Injected flit rate average = 0.59128
	minimum = 0.512 (at node 11)
	maximum = 0.68 (at node 1)
Accepted flit rate average= 0.595
	minimum = 0.473 (at node 18)
	maximum = 0.697 (at node 21)
Injected packet length average = 3.9973
Accepted packet length average = 3.98901
Total in-flight flits = 810 (0 measured)
latency change    = 0.126896
throughput change = 0.0392269
Class 0:
Packet latency average = 64.0321
	minimum = 10
	maximum = 448
Network latency average = 61.6654
	minimum = 10
	maximum = 446
Slowest packet = 12762
Flit latency average = 50.5254
	minimum = 7
	maximum = 443
Slowest flit = 51051
Fragmentation average = 15.9973
	minimum = 0
	maximum = 184
Injected packet rate average = 0.14984
	minimum = 0.1345 (at node 4)
	maximum = 0.162 (at node 2)
Accepted packet rate average = 0.14998
	minimum = 0.1305 (at node 18)
	maximum = 0.166 (at node 21)
Injected flit rate average = 0.59922
	minimum = 0.5375 (at node 4)
	maximum = 0.649 (at node 17)
Accepted flit rate average= 0.59956
	minimum = 0.525 (at node 18)
	maximum = 0.6605 (at node 21)
Injected packet length average = 3.99907
Accepted packet length average = 3.9976
Total in-flight flits = 883 (0 measured)
latency change    = 0.00665125
throughput change = 0.00760558
Class 0:
Packet latency average = 67.1368
	minimum = 10
	maximum = 446
Network latency average = 64.9324
	minimum = 10
	maximum = 441
Slowest packet = 13182
Flit latency average = 53.2716
	minimum = 7
	maximum = 438
Slowest flit = 52731
Fragmentation average = 16.7765
	minimum = 0
	maximum = 228
Injected packet rate average = 0.15132
	minimum = 0.127 (at node 1)
	maximum = 0.172 (at node 20)
Accepted packet rate average = 0.15144
	minimum = 0.139 (at node 6)
	maximum = 0.166 (at node 13)
Injected flit rate average = 0.6052
	minimum = 0.506 (at node 1)
	maximum = 0.687 (at node 20)
Accepted flit rate average= 0.60584
	minimum = 0.556 (at node 6)
	maximum = 0.663 (at node 13)
Injected packet length average = 3.99947
Accepted packet length average = 4.00053
Total in-flight flits = 869 (0 measured)
latency change    = 0.0462441
throughput change = 0.0103658
Class 0:
Packet latency average = 64.4741
	minimum = 10
	maximum = 446
Network latency average = 62.1505
	minimum = 10
	maximum = 441
Slowest packet = 13182
Flit latency average = 50.8449
	minimum = 7
	maximum = 438
Slowest flit = 52731
Fragmentation average = 16.1001
	minimum = 0
	maximum = 228
Injected packet rate average = 0.1499
	minimum = 0.1345 (at node 1)
	maximum = 0.166 (at node 4)
Accepted packet rate average = 0.15048
	minimum = 0.1335 (at node 15)
	maximum = 0.163 (at node 9)
Injected flit rate average = 0.5995
	minimum = 0.538 (at node 1)
	maximum = 0.6645 (at node 4)
Accepted flit rate average= 0.6021
	minimum = 0.5285 (at node 15)
	maximum = 0.656 (at node 9)
Injected packet length average = 3.99933
Accepted packet length average = 4.0012
Total in-flight flits = 758 (0 measured)
latency change    = 0.0412993
throughput change = 0.00621159
Class 0:
Packet latency average = 57.6927
	minimum = 10
	maximum = 363
Network latency average = 55.696
	minimum = 10
	maximum = 363
Slowest packet = 22258
Flit latency average = 45.4913
	minimum = 7
	maximum = 360
Slowest flit = 89035
Fragmentation average = 13.9332
	minimum = 0
	maximum = 152
Injected packet rate average = 0.14588
	minimum = 0.128 (at node 7)
	maximum = 0.168 (at node 5)
Accepted packet rate average = 0.14788
	minimum = 0.131 (at node 7)
	maximum = 0.169 (at node 10)
Injected flit rate average = 0.58404
	minimum = 0.509 (at node 20)
	maximum = 0.672 (at node 5)
Accepted flit rate average= 0.58924
	minimum = 0.517 (at node 7)
	maximum = 0.679 (at node 10)
Injected packet length average = 4.00356
Accepted packet length average = 3.98458
Total in-flight flits = 615 (0 measured)
latency change    = 0.117543
throughput change = 0.0218247
Class 0:
Packet latency average = 57.5689
	minimum = 10
	maximum = 363
Network latency average = 55.4363
	minimum = 10
	maximum = 363
Slowest packet = 22258
Flit latency average = 45.3448
	minimum = 7
	maximum = 360
Slowest flit = 89035
Fragmentation average = 13.9915
	minimum = 0
	maximum = 152
Injected packet rate average = 0.14912
	minimum = 0.1335 (at node 20)
	maximum = 0.1695 (at node 4)
Accepted packet rate average = 0.14856
	minimum = 0.135 (at node 15)
	maximum = 0.17 (at node 9)
Injected flit rate average = 0.59658
	minimum = 0.534 (at node 20)
	maximum = 0.678 (at node 4)
Accepted flit rate average= 0.5938
	minimum = 0.541 (at node 15)
	maximum = 0.678 (at node 9)
Injected packet length average = 4.00067
Accepted packet length average = 3.99704
Total in-flight flits = 892 (0 measured)
latency change    = 0.00215039
throughput change = 0.00767935
Class 0:
Packet latency average = 70.4894
	minimum = 10
	maximum = 392
Network latency average = 67.9317
	minimum = 10
	maximum = 390
Slowest packet = 29009
Flit latency average = 56.2574
	minimum = 7
	maximum = 387
Slowest flit = 116039
Fragmentation average = 17.2925
	minimum = 0
	maximum = 225
Injected packet rate average = 0.15268
	minimum = 0.134 (at node 20)
	maximum = 0.192 (at node 22)
Accepted packet rate average = 0.154
	minimum = 0.135 (at node 14)
	maximum = 0.177 (at node 19)
Injected flit rate average = 0.61076
	minimum = 0.536 (at node 20)
	maximum = 0.768 (at node 22)
Accepted flit rate average= 0.61532
	minimum = 0.536 (at node 14)
	maximum = 0.723 (at node 19)
Injected packet length average = 4.00026
Accepted packet length average = 3.99558
Total in-flight flits = 777 (0 measured)
latency change    = 0.183296
throughput change = 0.0349737
Class 0:
Packet latency average = 68.7411
	minimum = 10
	maximum = 394
Network latency average = 66.2122
	minimum = 10
	maximum = 391
Slowest packet = 29009
Flit latency average = 54.8229
	minimum = 7
	maximum = 388
Slowest flit = 138899
Fragmentation average = 16.6734
	minimum = 0
	maximum = 225
Injected packet rate average = 0.15156
	minimum = 0.1405 (at node 2)
	maximum = 0.1665 (at node 22)
Accepted packet rate average = 0.15204
	minimum = 0.134 (at node 5)
	maximum = 0.165 (at node 7)
Injected flit rate average = 0.6064
	minimum = 0.5625 (at node 2)
	maximum = 0.6645 (at node 22)
Accepted flit rate average= 0.60812
	minimum = 0.5405 (at node 11)
	maximum = 0.664 (at node 7)
Injected packet length average = 4.00106
Accepted packet length average = 3.99974
Total in-flight flits = 798 (0 measured)
latency change    = 0.0254321
throughput change = 0.0118398
Too many sample periods needed to converge
Simulation unstable, ending ...
Total run time 0.96037
