BEGIN Configuration File: /home/s65oh/booksim2/runfiles/mesh_k6_inj0.05_pkt12.cfg
topology = mesh;
k = 6;
n = 2;
routing_function = dor;
traffic = uniform;
packet_size = 12;
injection_rate = 0.05;
sim_count = 100000;
warmup_periods = 1000;

END Configuration File: /home/s65oh/booksim2/runfiles/mesh_k6_inj0.05_pkt12.cfg
Class 0:
Packet latency average = 133.427
	minimum = 22
	maximum = 597
Network latency average = 107.566
	minimum = 22
	maximum = 596
Slowest packet = 424
Flit latency average = 72.9151
	minimum = 7
	maximum = 585
Slowest flit = 5099
Fragmentation average = 50.3091
	minimum = 0
	maximum = 416
Injected packet rate average = 0.0460556
	minimum = 0.032 (at node 33)
	maximum = 0.057 (at node 21)
Accepted packet rate average = 0.039
	minimum = 0.028 (at node 16)
	maximum = 0.052 (at node 8)
Injected flit rate average = 0.54975
	minimum = 0.383 (at node 33)
	maximum = 0.68 (at node 21)
Accepted flit rate average= 0.491139
	minimum = 0.356 (at node 19)
	maximum = 0.64 (at node 8)
Injected packet length average = 11.9367
Accepted packet length average = 12.5933
Total in-flight flits = 2215 (0 measured)
latency change    = 1
throughput change = 1
Class 0:
Packet latency average = 194.705
	minimum = 18
	maximum = 896
Network latency average = 144.09
	minimum = 18
	maximum = 769
Slowest packet = 1615
Flit latency average = 99.7469
	minimum = 7
	maximum = 752
Slowest flit = 23507
Fragmentation average = 69.649
	minimum = 0
	maximum = 554
Injected packet rate average = 0.0468056
	minimum = 0.0375 (at node 13)
	maximum = 0.055 (at node 17)
Accepted packet rate average = 0.0419861
	minimum = 0.033 (at node 13)
	maximum = 0.054 (at node 25)
Injected flit rate average = 0.559528
	minimum = 0.4485 (at node 13)
	maximum = 0.657 (at node 17)
Accepted flit rate average= 0.518806
	minimum = 0.4015 (at node 13)
	maximum = 0.669 (at node 25)
Injected packet length average = 11.9543
Accepted packet length average = 12.3566
Total in-flight flits = 3086 (0 measured)
latency change    = 0.314721
throughput change = 0.0533276
Class 0:
Packet latency average = 312.725
	minimum = 22
	maximum = 1372
Network latency average = 201.718
	minimum = 20
	maximum = 1122
Slowest packet = 2046
Flit latency average = 143.901
	minimum = 7
	maximum = 1100
Slowest flit = 35302
Fragmentation average = 89.4782
	minimum = 0
	maximum = 620
Injected packet rate average = 0.0446111
	minimum = 0.029 (at node 8)
	maximum = 0.058 (at node 18)
Accepted packet rate average = 0.0445
	minimum = 0.03 (at node 1)
	maximum = 0.057 (at node 7)
Injected flit rate average = 0.536278
	minimum = 0.356 (at node 8)
	maximum = 0.697 (at node 18)
Accepted flit rate average= 0.533167
	minimum = 0.337 (at node 2)
	maximum = 0.69 (at node 7)
Injected packet length average = 12.0212
Accepted packet length average = 11.9813
Total in-flight flits = 3164 (0 measured)
latency change    = 0.377391
throughput change = 0.0269355
Class 0:
Packet latency average = 372.415
	minimum = 22
	maximum = 1591
Network latency average = 213.682
	minimum = 20
	maximum = 1122
Slowest packet = 2046
Flit latency average = 154.568
	minimum = 7
	maximum = 1100
Slowest flit = 35302
Fragmentation average = 94.0826
	minimum = 0
	maximum = 675
Injected packet rate average = 0.0441111
	minimum = 0.03 (at node 10)
	maximum = 0.0585 (at node 18)
Accepted packet rate average = 0.0442361
	minimum = 0.0365 (at node 2)
	maximum = 0.054 (at node 15)
Injected flit rate average = 0.529458
	minimum = 0.358 (at node 10)
	maximum = 0.705 (at node 18)
Accepted flit rate average= 0.530694
	minimum = 0.4405 (at node 2)
	maximum = 0.654 (at node 15)
Injected packet length average = 12.0028
Accepted packet length average = 11.9969
Total in-flight flits = 2988 (0 measured)
latency change    = 0.160279
throughput change = 0.00465847
Class 0:
Packet latency average = 551.064
	minimum = 23
	maximum = 1822
Network latency average = 212.542
	minimum = 20
	maximum = 1176
Slowest packet = 5504
Flit latency average = 151.561
	minimum = 7
	maximum = 1162
Slowest flit = 72107
Fragmentation average = 95.9067
	minimum = 2
	maximum = 543
Injected packet rate average = 0.0450556
	minimum = 0.027 (at node 27)
	maximum = 0.066 (at node 29)
Accepted packet rate average = 0.0458611
	minimum = 0.032 (at node 9)
	maximum = 0.057 (at node 25)
Injected flit rate average = 0.542111
	minimum = 0.325 (at node 27)
	maximum = 0.793 (at node 29)
Accepted flit rate average= 0.548639
	minimum = 0.374 (at node 9)
	maximum = 0.655 (at node 15)
Injected packet length average = 12.0321
Accepted packet length average = 11.9631
Total in-flight flits = 2701 (0 measured)
latency change    = 0.324189
throughput change = 0.0327072
Average latency for class 0 exceeded 500 cycles. Aborting simulation.
Too many sample periods needed to converge
Simulation unstable, ending ...
Total run time 0.638997
