BEGIN Configuration File: /home/s65oh/booksim2/runfiles/mesh_k5_inj0.05_pkt12.cfg
topology = mesh;
k = 5;
n = 2;
routing_function = dor;
traffic = uniform;
packet_size = 12;
injection_rate = 0.05;
sim_count = 100000;
warmup_periods = 1000;

END Configuration File: /home/s65oh/booksim2/runfiles/mesh_k5_inj0.05_pkt12.cfg
Class 0:
Packet latency average = 93.2082
	minimum = 18
	maximum = 373
Network latency average = 76.6357
	minimum = 18
	maximum = 363
Slowest packet = 250
Flit latency average = 48.7774
	minimum = 7
	maximum = 352
Slowest flit = 3011
Fragmentation average = 32.9396
	minimum = 0
	maximum = 260
Injected packet rate average = 0.0478
	minimum = 0.039 (at node 11)
	maximum = 0.057 (at node 10)
Accepted packet rate average = 0.04304
	minimum = 0.035 (at node 2)
	maximum = 0.055 (at node 19)
Injected flit rate average = 0.5696
	minimum = 0.466 (at node 11)
	maximum = 0.68 (at node 10)
Accepted flit rate average= 0.53232
	minimum = 0.43 (at node 2)
	maximum = 0.674 (at node 19)
Injected packet length average = 11.9163
Accepted packet length average = 12.368
Total in-flight flits = 1032 (0 measured)
latency change    = 1
throughput change = 1
Class 0:
Packet latency average = 120.719
	minimum = 18
	maximum = 587
Network latency average = 90.839
	minimum = 18
	maximum = 432
Slowest packet = 250
Flit latency average = 58.3482
	minimum = 7
	maximum = 420
Slowest flit = 21251
Fragmentation average = 42.0633
	minimum = 0
	maximum = 303
Injected packet rate average = 0.04892
	minimum = 0.044 (at node 0)
	maximum = 0.057 (at node 10)
Accepted packet rate average = 0.04584
	minimum = 0.038 (at node 18)
	maximum = 0.057 (at node 22)
Injected flit rate average = 0.5846
	minimum = 0.5225 (at node 0)
	maximum = 0.6835 (at node 10)
Accepted flit rate average= 0.56068
	minimum = 0.464 (at node 18)
	maximum = 0.695 (at node 22)
Injected packet length average = 11.9501
Accepted packet length average = 12.2312
Total in-flight flits = 1318 (0 measured)
latency change    = 0.227894
throughput change = 0.0505814
Class 0:
Packet latency average = 155.344
	minimum = 18
	maximum = 705
Network latency average = 112.022
	minimum = 18
	maximum = 568
Slowest packet = 2361
Flit latency average = 74.3671
	minimum = 7
	maximum = 557
Slowest flit = 27575
Fragmentation average = 54.4278
	minimum = 0
	maximum = 486
Injected packet rate average = 0.0474
	minimum = 0.033 (at node 8)
	maximum = 0.061 (at node 21)
Accepted packet rate average = 0.04956
	minimum = 0.033 (at node 17)
	maximum = 0.064 (at node 5)
Injected flit rate average = 0.57204
	minimum = 0.399 (at node 8)
	maximum = 0.732 (at node 21)
Accepted flit rate average= 0.58716
	minimum = 0.418 (at node 17)
	maximum = 0.747 (at node 5)
Injected packet length average = 12.0684
Accepted packet length average = 11.8475
Total in-flight flits = 859 (0 measured)
latency change    = 0.222889
throughput change = 0.0450984
Class 0:
Packet latency average = 150.842
	minimum = 18
	maximum = 744
Network latency average = 109.108
	minimum = 18
	maximum = 727
Slowest packet = 3693
Flit latency average = 72.2327
	minimum = 7
	maximum = 716
Slowest flit = 45107
Fragmentation average = 52.4591
	minimum = 0
	maximum = 591
Injected packet rate average = 0.0482
	minimum = 0.0415 (at node 14)
	maximum = 0.0615 (at node 21)
Accepted packet rate average = 0.04866
	minimum = 0.0375 (at node 9)
	maximum = 0.0585 (at node 13)
Injected flit rate average = 0.57908
	minimum = 0.4985 (at node 14)
	maximum = 0.733 (at node 21)
Accepted flit rate average= 0.58156
	minimum = 0.436 (at node 9)
	maximum = 0.6805 (at node 13)
Injected packet length average = 12.0141
Accepted packet length average = 11.9515
Total in-flight flits = 1160 (0 measured)
latency change    = 0.0298463
throughput change = 0.00962927
Class 0:
Packet latency average = 174.243
	minimum = 18
	maximum = 761
Network latency average = 108.945
	minimum = 18
	maximum = 693
Slowest packet = 4280
Flit latency average = 72.189
	minimum = 7
	maximum = 681
Slowest flit = 58954
Fragmentation average = 50.0847
	minimum = 0
	maximum = 543
Injected packet rate average = 0.05044
	minimum = 0.035 (at node 7)
	maximum = 0.072 (at node 15)
Accepted packet rate average = 0.0496
	minimum = 0.035 (at node 12)
	maximum = 0.069 (at node 6)
Injected flit rate average = 0.60548
	minimum = 0.413 (at node 7)
	maximum = 0.865 (at node 15)
Accepted flit rate average= 0.59692
	minimum = 0.43 (at node 12)
	maximum = 0.799 (at node 24)
Injected packet length average = 12.004
Accepted packet length average = 12.0347
Total in-flight flits = 1369 (0 measured)
latency change    = 0.134301
throughput change = 0.0257321
Class 0:
Packet latency average = 183.497
	minimum = 18
	maximum = 763
Network latency average = 117.668
	minimum = 18
	maximum = 693
Slowest packet = 4280
Flit latency average = 78.7598
	minimum = 7
	maximum = 681
Slowest flit = 58954
Fragmentation average = 56.6934
	minimum = 0
	maximum = 543
Injected packet rate average = 0.05
	minimum = 0.042 (at node 10)
	maximum = 0.061 (at node 15)
Accepted packet rate average = 0.0497
	minimum = 0.0385 (at node 12)
	maximum = 0.065 (at node 24)
Injected flit rate average = 0.59968
	minimum = 0.5035 (at node 10)
	maximum = 0.7285 (at node 15)
Accepted flit rate average= 0.59816
	minimum = 0.4705 (at node 12)
	maximum = 0.7655 (at node 24)
Injected packet length average = 11.9936
Accepted packet length average = 12.0354
Total in-flight flits = 1252 (0 measured)
latency change    = 0.0504347
throughput change = 0.00207302
Class 0:
Packet latency average = 197.78
	minimum = 18
	maximum = 1040
Network latency average = 119.476
	minimum = 18
	maximum = 748
Slowest packet = 6616
Flit latency average = 78.3405
	minimum = 7
	maximum = 734
Slowest flit = 88307
Fragmentation average = 58.1304
	minimum = 0
	maximum = 603
Injected packet rate average = 0.0484
	minimum = 0.037 (at node 21)
	maximum = 0.062 (at node 19)
Accepted packet rate average = 0.04756
	minimum = 0.037 (at node 18)
	maximum = 0.061 (at node 21)
Injected flit rate average = 0.58112
	minimum = 0.435 (at node 21)
	maximum = 0.741 (at node 19)
Accepted flit rate average= 0.5732
	minimum = 0.471 (at node 22)
	maximum = 0.741 (at node 21)
Injected packet length average = 12.0066
Accepted packet length average = 12.0521
Total in-flight flits = 1442 (0 measured)
latency change    = 0.072213
throughput change = 0.043545
Class 0:
Packet latency average = 210.385
	minimum = 18
	maximum = 1108
Network latency average = 126.593
	minimum = 18
	maximum = 851
Slowest packet = 6616
Flit latency average = 84.6425
	minimum = 7
	maximum = 838
Slowest flit = 99071
Fragmentation average = 60.728
	minimum = 0
	maximum = 603
Injected packet rate average = 0.0494
	minimum = 0.0425 (at node 21)
	maximum = 0.058 (at node 2)
Accepted packet rate average = 0.0489
	minimum = 0.037 (at node 18)
	maximum = 0.058 (at node 21)
Injected flit rate average = 0.59272
	minimum = 0.5085 (at node 21)
	maximum = 0.696 (at node 2)
Accepted flit rate average= 0.58964
	minimum = 0.457 (at node 18)
	maximum = 0.709 (at node 21)
Injected packet length average = 11.9984
Accepted packet length average = 12.0581
Total in-flight flits = 1410 (0 measured)
latency change    = 0.0599151
throughput change = 0.0278814
Class 0:
Packet latency average = 243.009
	minimum = 22
	maximum = 1241
Network latency average = 131.091
	minimum = 22
	maximum = 1157
Slowest packet = 9106
Flit latency average = 87.4544
	minimum = 7
	maximum = 1143
Slowest flit = 112343
Fragmentation average = 62.6474
	minimum = 0
	maximum = 619
Injected packet rate average = 0.05052
	minimum = 0.037 (at node 6)
	maximum = 0.063 (at node 19)
Accepted packet rate average = 0.0506
	minimum = 0.036 (at node 10)
	maximum = 0.06 (at node 22)
Injected flit rate average = 0.60544
	minimum = 0.45 (at node 6)
	maximum = 0.758 (at node 19)
Accepted flit rate average= 0.60216
	minimum = 0.42 (at node 10)
	maximum = 0.708 (at node 22)
Injected packet length average = 11.9842
Accepted packet length average = 11.9004
Total in-flight flits = 1512 (0 measured)
latency change    = 0.13425
throughput change = 0.0207918
Class 0:
Packet latency average = 267.208
	minimum = 18
	maximum = 1319
Network latency average = 134.352
	minimum = 18
	maximum = 1157
Slowest packet = 9106
Flit latency average = 90.0038
	minimum = 7
	maximum = 1143
Slowest flit = 112343
Fragmentation average = 66.1993
	minimum = 0
	maximum = 619
Injected packet rate average = 0.05008
	minimum = 0.0375 (at node 6)
	maximum = 0.0555 (at node 19)
Accepted packet rate average = 0.05028
	minimum = 0.0415 (at node 18)
	maximum = 0.059 (at node 20)
Injected flit rate average = 0.60144
	minimum = 0.4535 (at node 6)
	maximum = 0.6685 (at node 19)
Accepted flit rate average= 0.60224
	minimum = 0.494 (at node 18)
	maximum = 0.71 (at node 20)
Injected packet length average = 12.0096
Accepted packet length average = 11.9777
Total in-flight flits = 1346 (0 measured)
latency change    = 0.090565
throughput change = 0.000132837
Too many sample periods needed to converge
Simulation unstable, ending ...
Total run time 0.743889
