BEGIN Configuration File: /home/s65oh/booksim2/runfiles/mesh_k4_inj0.05_pkt4.cfg
topology = mesh;
k = 4;
n = 2;
routing_function = dor;
traffic = uniform;
packet_size = 4;
injection_rate = 0.05;
sim_count = 100000;
warmup_periods = 1000;

END Configuration File: /home/s65oh/booksim2/runfiles/mesh_k4_inj0.05_pkt4.cfg
Class 0:
Packet latency average = 24.1443
	minimum = 10
	maximum = 44
Network latency average = 23.8049
	minimum = 10
	maximum = 43
Slowest packet = 229
Flit latency average = 20.3424
	minimum = 7
	maximum = 40
Slowest flit = 919
Fragmentation average = 0.918075
	minimum = 0
	maximum = 9
Injected packet rate average = 0.048875
	minimum = 0.039 (at node 5)
	maximum = 0.058 (at node 7)
Accepted packet rate average = 0.0480625
	minimum = 0.038 (at node 11)
	maximum = 0.054 (at node 12)
Injected flit rate average = 0.1955
	minimum = 0.156 (at node 5)
	maximum = 0.232 (at node 7)
Accepted flit rate average= 0.192375
	minimum = 0.152 (at node 11)
	maximum = 0.216 (at node 12)
Injected packet length average = 4
Accepted packet length average = 4.0026
Total in-flight flits = 50 (0 measured)
latency change    = 1
throughput change = 1
Class 0:
Packet latency average = 23.9275
	minimum = 10
	maximum = 47
Network latency average = 23.577
	minimum = 10
	maximum = 46
Slowest packet = 229
Flit latency average = 20.0776
	minimum = 7
	maximum = 43
Slowest flit = 5498
Fragmentation average = 0.985237
	minimum = 0
	maximum = 9
Injected packet rate average = 0.049125
	minimum = 0.0445 (at node 14)
	maximum = 0.0545 (at node 6)
Accepted packet rate average = 0.0486875
	minimum = 0.0415 (at node 14)
	maximum = 0.055 (at node 12)
Injected flit rate average = 0.196406
	minimum = 0.178 (at node 14)
	maximum = 0.218 (at node 6)
Accepted flit rate average= 0.194844
	minimum = 0.166 (at node 14)
	maximum = 0.22 (at node 12)
Injected packet length average = 3.99809
Accepted packet length average = 4.00193
Total in-flight flits = 53 (0 measured)
latency change    = 0.00906373
throughput change = 0.0126704
Class 0:
Packet latency average = 24.2161
	minimum = 10
	maximum = 46
Network latency average = 23.8462
	minimum = 10
	maximum = 43
Slowest packet = 1682
Flit latency average = 20.3295
	minimum = 7
	maximum = 40
Slowest flit = 6731
Fragmentation average = 1.03907
	minimum = 0
	maximum = 10
Injected packet rate average = 0.05175
	minimum = 0.037 (at node 9)
	maximum = 0.065 (at node 7)
Accepted packet rate average = 0.0511875
	minimum = 0.04 (at node 4)
	maximum = 0.063 (at node 15)
Injected flit rate average = 0.207125
	minimum = 0.148 (at node 9)
	maximum = 0.26 (at node 7)
Accepted flit rate average= 0.205437
	minimum = 0.157 (at node 4)
	maximum = 0.252 (at node 15)
Injected packet length average = 4.00242
Accepted packet length average = 4.01343
Total in-flight flits = 78 (0 measured)
latency change    = 0.0119196
throughput change = 0.0515668
Class 0:
Packet latency average = 24.1164
	minimum = 10
	maximum = 48
Network latency average = 23.7753
	minimum = 10
	maximum = 46
Slowest packet = 1682
Flit latency average = 20.2236
	minimum = 7
	maximum = 43
Slowest flit = 9979
Fragmentation average = 1.09062
	minimum = 0
	maximum = 15
Injected packet rate average = 0.0499062
	minimum = 0.0395 (at node 11)
	maximum = 0.058 (at node 4)
Accepted packet rate average = 0.0496562
	minimum = 0.039 (at node 4)
	maximum = 0.0545 (at node 0)
Injected flit rate average = 0.199437
	minimum = 0.158 (at node 11)
	maximum = 0.2325 (at node 4)
Accepted flit rate average= 0.198625
	minimum = 0.1545 (at node 4)
	maximum = 0.218 (at node 0)
Injected packet length average = 3.99624
Accepted packet length average = 4
Total in-flight flits = 85 (0 measured)
latency change    = 0.00413377
throughput change = 0.0342983
Class 0:
Packet latency average = 24.2058
	minimum = 10
	maximum = 43
Network latency average = 23.9463
	minimum = 10
	maximum = 43
Slowest packet = 3210
Flit latency average = 20.4593
	minimum = 7
	maximum = 40
Slowest flit = 14363
Fragmentation average = 0.993447
	minimum = 0
	maximum = 10
Injected packet rate average = 0.047375
	minimum = 0.035 (at node 6)
	maximum = 0.055 (at node 11)
Accepted packet rate average = 0.0476875
	minimum = 0.039 (at node 5)
	maximum = 0.061 (at node 6)
Injected flit rate average = 0.189938
	minimum = 0.14 (at node 6)
	maximum = 0.22 (at node 11)
Accepted flit rate average= 0.191312
	minimum = 0.153 (at node 9)
	maximum = 0.244 (at node 6)
Injected packet length average = 4.00923
Accepted packet length average = 4.0118
Total in-flight flits = 56 (0 measured)
latency change    = 0.00369091
throughput change = 0.0382228
Class 0:
Packet latency average = 24.2331
	minimum = 10
	maximum = 51
Network latency average = 23.8935
	minimum = 10
	maximum = 51
Slowest packet = 4510
Flit latency average = 20.3587
	minimum = 7
	maximum = 48
Slowest flit = 18043
Fragmentation average = 1.06198
	minimum = 0
	maximum = 12
Injected packet rate average = 0.0482187
	minimum = 0.035 (at node 6)
	maximum = 0.0575 (at node 5)
Accepted packet rate average = 0.0484062
	minimum = 0.043 (at node 4)
	maximum = 0.0555 (at node 6)
Injected flit rate average = 0.192906
	minimum = 0.14 (at node 6)
	maximum = 0.229 (at node 5)
Accepted flit rate average= 0.193656
	minimum = 0.173 (at node 4)
	maximum = 0.222 (at node 6)
Injected packet length average = 4.00065
Accepted packet length average = 4.00065
Total in-flight flits = 60 (0 measured)
latency change    = 0.00112602
throughput change = 0.0121026
Class 0:
Packet latency average = 24.0452
	minimum = 10
	maximum = 54
Network latency average = 23.6516
	minimum = 10
	maximum = 48
Slowest packet = 4683
Flit latency average = 20.0541
	minimum = 7
	maximum = 45
Slowest flit = 20631
Fragmentation average = 1.16504
	minimum = 0
	maximum = 11
Injected packet rate average = 0.051125
	minimum = 0.04 (at node 5)
	maximum = 0.065 (at node 14)
Accepted packet rate average = 0.051125
	minimum = 0.042 (at node 6)
	maximum = 0.069 (at node 1)
Injected flit rate average = 0.204563
	minimum = 0.163 (at node 5)
	maximum = 0.257 (at node 14)
Accepted flit rate average= 0.204313
	minimum = 0.168 (at node 6)
	maximum = 0.275 (at node 1)
Injected packet length average = 4.00122
Accepted packet length average = 3.99633
Total in-flight flits = 63 (0 measured)
latency change    = 0.00781117
throughput change = 0.0521566
Class 0:
Packet latency average = 24.1776
	minimum = 10
	maximum = 54
Network latency average = 23.7881
	minimum = 10
	maximum = 48
Slowest packet = 4683
Flit latency average = 20.2231
	minimum = 7
	maximum = 45
Slowest flit = 20631
Fragmentation average = 1.09982
	minimum = 0
	maximum = 12
Injected packet rate average = 0.0509063
	minimum = 0.042 (at node 5)
	maximum = 0.061 (at node 7)
Accepted packet rate average = 0.0510313
	minimum = 0.0415 (at node 13)
	maximum = 0.0605 (at node 1)
Injected flit rate average = 0.203687
	minimum = 0.1695 (at node 5)
	maximum = 0.243 (at node 7)
Accepted flit rate average= 0.204094
	minimum = 0.166 (at node 13)
	maximum = 0.2415 (at node 1)
Injected packet length average = 4.00123
Accepted packet length average = 3.99939
Total in-flight flits = 45 (0 measured)
latency change    = 0.00547428
throughput change = 0.00107181
Class 0:
Packet latency average = 23.7491
	minimum = 10
	maximum = 45
Network latency average = 23.3599
	minimum = 10
	maximum = 44
Slowest packet = 6518
Flit latency average = 19.8395
	minimum = 7
	maximum = 41
Slowest flit = 26075
Fragmentation average = 1.02203
	minimum = 0
	maximum = 10
Injected packet rate average = 0.0519375
	minimum = 0.041 (at node 0)
	maximum = 0.063 (at node 10)
Accepted packet rate average = 0.0510625
	minimum = 0.04 (at node 1)
	maximum = 0.062 (at node 8)
Injected flit rate average = 0.207187
	minimum = 0.164 (at node 0)
	maximum = 0.252 (at node 10)
Accepted flit rate average= 0.2045
	minimum = 0.161 (at node 1)
	maximum = 0.251 (at node 8)
Injected packet length average = 3.98917
Accepted packet length average = 4.0049
Total in-flight flits = 97 (0 measured)
latency change    = 0.018043
throughput change = 0.00198655
Class 0:
Packet latency average = 24.317
	minimum = 10
	maximum = 49
Network latency average = 23.9726
	minimum = 10
	maximum = 48
Slowest packet = 7163
Flit latency average = 20.4303
	minimum = 7
	maximum = 45
Slowest flit = 30503
Fragmentation average = 1.08036
	minimum = 0
	maximum = 16
Injected packet rate average = 0.0491875
	minimum = 0.045 (at node 0)
	maximum = 0.0565 (at node 10)
Accepted packet rate average = 0.049
	minimum = 0.039 (at node 5)
	maximum = 0.0585 (at node 11)
Injected flit rate average = 0.196719
	minimum = 0.18 (at node 0)
	maximum = 0.226 (at node 10)
Accepted flit rate average= 0.196
	minimum = 0.156 (at node 5)
	maximum = 0.234 (at node 11)
Injected packet length average = 3.99936
Accepted packet length average = 4
Total in-flight flits = 69 (0 measured)
latency change    = 0.0233533
throughput change = 0.0433673
Too many sample periods needed to converge
Simulation unstable, ending ...
Total run time 0.166294
